lig_23479
  PyMOL2.3          3D                             0

 24 24  0  0  0  0  0  0  0  0999 V2000
   39.7057    7.2492   17.1746 H   0  0  0  0  0  0  0  0  0  0  0  0
   40.8100    9.7200   16.7900 R   0  0  0  0  0  0  0  0  0  0  0  0
   39.5000    9.2300   16.6200 N   0  0  0  0  0  0  0  0  0  0  0  0
   39.2600    7.8200   16.3600 C   0  0  0  0  0  0  0  0  0  0  0  0
   37.7400    7.5400   16.3200 C   0  0  0  0  0  0  0  0  0  0  0  0
   37.4100    6.0900   15.9100 C   0  0  0  0  0  0  0  0  0  0  0  0
   38.1200    5.7200   14.6700 N   0  0  0  0  0  0  0  0  0  0  0  0
   39.5800    5.9000   14.6900 C   0  0  0  0  0  0  0  0  0  0  0  0
   39.9400    7.3500   15.0500 C   0  0  0  0  0  0  0  0  0  0  0  0
   38.7500    9.9000   16.7100 H   0  0  0  0  0  0  0  0  0  0  0  0
   37.2900    7.7500   17.2900 H   0  0  0  0  0  0  0  0  0  0  0  0
   37.2700    8.2200   15.6100 H   0  0  0  0  0  0  0  0  0  0  0  0
   37.7000    5.3800   16.6900 H   0  0  0  0  0  0  0  0  0  0  0  0
   36.3300    5.9600   15.7800 H   0  0  0  0  0  0  0  0  0  0  0  0
   39.9800    5.1900   15.4100 H   0  0  0  0  0  0  0  0  0  0  0  0
   39.9900    5.6200   13.7300 H   0  0  0  0  0  0  0  0  0  0  0  0
   39.6400    8.0100   14.2300 H   0  0  0  0  0  0  0  0  0  0  0  0
   41.0200    7.4400   15.1400 H   0  0  0  0  0  0  0  0  0  0  0  0
   38.1400    5.2200   11.9500 C   0  0  0  0  0  0  0  0  0  0  0  0
   37.3400    5.1200   13.2600 C   0  0  0  0  0  0  0  0  0  0  0  0
   36.2300    4.6600   13.3100 O   0  0  0  0  0  0  0  0  0  0  0  0
   37.5500    4.8100   11.1300 H   0  0  0  0  0  0  0  0  0  0  0  0
   38.3800    6.2600   11.7400 H   0  0  0  0  0  0  0  0  0  0  0  0
   39.0700    4.6500   12.0500 H   0  0  0  0  0  0  0  0  0  0  0  0
  2  3  1  0  0  0  0
  3  4  1  0  0  0  0
  3 10  1  0  0  0  0
  1  4  1  0  0  0  0
  4  5  1  0  0  0  0
  4  9  1  0  0  0  0
  5  6  1  0  0  0  0
  5 11  1  0  0  0  0
  5 12  1  0  0  0  0
  6  7  1  0  0  0  0
  6 13  1  0  0  0  0
  6 14  1  0  0  0  0
  7  8  1  0  0  0  0
  7 20  1  0  0  0  0
  8  9  1  0  0  0  0
  8 15  1  0  0  0  0
  8 16  1  0  0  0  0
  9 17  1  0  0  0  0
  9 18  1  0  0  0  0
 19 20  1  0  0  0  0
 19 22  1  0  0  0  0
 19 23  1  0  0  0  0
 19 24  1  0  0  0  0
 20 21  2  0  0  0  0
M  END
