lig_p38a_3flq
 OpenBabel11122110533D

 17 16  0  0  1  0  0  0  0  0999 V2000
   33.6700   39.5700   24.9300 *   0  0  0  0  0  0  0  0  0  0  0  0
   33.0700   38.7200   26.0400 C   0  0  1  0  0  0  0  0  0  0  0  0
   33.9200   38.8700   27.3100 C   0  0  0  0  0  0  0  0  0  0  0  0
   31.6300   39.2000   26.3300 C   0  0  0  0  0  0  0  0  0  0  0  0
   33.0500   37.6800   25.7300 H   0  0  0  0  0  0  0  0  0  0  0  0
   33.4900   38.2600   28.1100 H   0  0  0  0  0  0  0  0  0  0  0  0
   34.9400   38.5300   27.1100 H   0  0  0  0  0  0  0  0  0  0  0  0
   33.9400   39.9100   27.6200 H   0  0  0  0  0  0  0  0  0  0  0  0
   31.2000   38.5900   27.1200 H   0  0  0  0  0  0  0  0  0  0  0  0
   31.6500   40.2400   26.6300 H   0  0  0  0  0  0  0  0  0  0  0  0
   30.6400   39.0300   24.8500 S   0  0  0  0  0  0  0  0  0  0  0  0
   31.3400   39.7300   23.7400 O   0  0  0  0  0  0  0  0  0  0  0  0
   30.5600   37.2800   24.4400 C   0  0  0  0  0  0  0  0  0  0  0  0
   29.2700   39.4900   25.1500 O   0  0  0  0  0  0  0  0  0  0  0  0
   30.0500   36.7500   25.2400 H   0  0  0  0  0  0  0  0  0  0  0  0
   30.0100   37.1600   23.5100 H   0  0  0  0  0  0  0  0  0  0  0  0
   31.5700   36.8900   24.3200 H   0  0  0  0  0  0  0  0  0  0  0  0
  1  2  1  0  0  0  0
  2  3  1  0  0  0  0
  2  4  1  0  0  0  0
  2  5  1  6  0  0  0
  3  6  1  0  0  0  0
  3  7  1  0  0  0  0
  3  8  1  0  0  0  0
  4  9  1  0  0  0  0
  4 10  1  0  0  0  0
  4 11  1  0  0  0  0
 11 12  2  0  0  0  0
 11 13  1  0  0  0  0
 11 14  2  0  0  0  0
 13 15  1  0  0  0  0
 13 16  1  0  0  0  0
 13 17  1  0  0  0  0
A    1
R
M  END
