lig_36
  PyMOL2.3          3D                             0

 18 18  0  0  0  0  0  0  0  0999 V2000
   -1.7500  -46.4000    7.2900 R   0  0  0  0  0  0  0  0  0  0  0  0
   -2.8400  -46.3400    8.1300 C   0  0  0  0  0  0  0  0  0  0  0  0
   -2.8200  -46.9800    9.3500 C   0  0  0  0  0  0  0  0  0  0  0  0
   -1.9500  -47.5500    9.6600 H   0  0  0  0  0  0  0  0  0  0  0  0
   -3.9400  -46.8900   10.1700 C   0  0  0  0  0  0  0  0  0  0  0  0
   -3.9400  -47.5500   11.4300 C   0  0  0  0  0  0  0  0  0  0  0  0
   -2.9900  -48.0600   11.5700 H   0  0  0  0  0  0  0  0  0  0  0  0
   -5.0000  -48.5000   11.4800 C   0  0  0  0  0  0  0  0  0  0  0  0
   -4.8600  -49.2400   10.6900 H   0  0  0  0  0  0  0  0  0  0  0  0
   -5.9600  -47.9900   11.3400 H   0  0  0  0  0  0  0  0  0  0  0  0
   -5.0000  -49.0100   12.4400 H   0  0  0  0  0  0  0  0  0  0  0  0
   -4.0800  -46.8200   12.2300 H   0  0  0  0  0  0  0  0  0  0  0  0
   -5.0700  -46.1700    9.7800 C   0  0  0  0  0  0  0  0  0  0  0  0
   -6.4700  -46.0800   10.8300 Cl  0  0  0  0  0  0  0  0  0  0  0  0
   -5.0700  -45.5300    8.5500 C   0  0  0  0  0  0  0  0  0  0  0  0
   -5.9400  -44.9700    8.2300 H   0  0  0  0  0  0  0  0  0  0  0  0
   -3.9500  -45.6100    7.7200 C   0  0  0  0  0  0  0  0  0  0  0  0
   -3.9400  -45.1000    6.7700 H   0  0  0  0  0  0  0  0  0  0  0  0
  1  2  1  0  0  0  0
  2  3  1  0  0  0  0
  2 17  2  0  0  0  0
  3  4  1  0  0  0  0
  3  5  2  0  0  0  0
  5  6  1  0  0  0  0
  5 13  1  0  0  0  0
  6  7  1  0  0  0  0
  6  8  1  0  0  0  0
  6 12  1  0  0  0  0
  8  9  1  0  0  0  0
  8 10  1  0  0  0  0
  8 11  1  0  0  0  0
 13 14  1  0  0  0  0
 13 15  2  0  0  0  0
 15 16  1  0  0  0  0
 15 17  1  0  0  0  0
 17 18  1  0  0  0  0
M  END
