lig_1oi9
  PyMOL2.3          3D                             0

 15 15  0  0  0  0  0  0  0  0999 V2000
    1.3800   28.9200    6.9700 R   0  0  0  0  0  0  0  0  0  0  0  0
    2.5000   28.4800    6.4600 N   0  0  0  0  0  0  0  0  0  0  0  0
    3.1000   27.3000    6.8500 C   0  0  0  0  0  0  0  0  0  0  0  0
    4.0100   26.7100    5.9500 C   0  0  0  0  0  0  0  0  0  0  0  0
    4.7200   25.5700    6.2300 C   0  0  0  0  0  0  0  0  0  0  0  0
    4.5600   24.9000    7.4200 C   0  0  0  0  0  0  0  0  0  0  0  0
    5.2700   23.6900    7.6900 O   0  0  0  0  0  0  0  0  0  0  0  0
    5.0900   23.3000    8.5500 H   0  0  0  0  0  0  0  0  0  0  0  0
    3.6500   25.4600    8.3900 C   0  0  0  0  0  0  0  0  0  0  0  0
    2.9900   26.6300    8.0700 C   0  0  0  0  0  0  0  0  0  0  0  0
    2.9400   29.0300    5.7400 H   0  0  0  0  0  0  0  0  0  0  0  0
    4.1500   27.1800    4.9900 H   0  0  0  0  0  0  0  0  0  0  0  0
    5.4300   25.1900    5.5000 H   0  0  0  0  0  0  0  0  0  0  0  0
    3.4900   24.9800    9.3400 H   0  0  0  0  0  0  0  0  0  0  0  0
    2.3500   27.0600    8.8200 H   0  0  0  0  0  0  0  0  0  0  0  0
  1  2  1  0  0  0  0
  2  3  1  0  0  0  0
  2 11  1  0  0  0  0
  3  4  1  0  0  0  0
  3 10  2  0  0  0  0
  4  5  2  0  0  0  0
  4 12  1  0  0  0  0
  5  6  1  0  0  0  0
  5 13  1  0  0  0  0
  6  7  1  0  0  0  0
  6  9  2  0  0  0  0
  7  8  1  0  0  0  0
  9 10  1  0  0  0  0
  9 14  1  0  0  0  0
 10 15  1  0  0  0  0
M  END
