lig_40
 OpenBabel12152122293D

  8  8  0  0  0  0  0  0  0  0999 V2000
   26.9500   15.3200    9.1900 *   0  0  0  0  0  0  0  0  0  0  0  0
   29.0700   18.2400    9.5000 C   0  0  0  0  0  0  0  0  0  0  0  0
   29.8100   18.9500    9.1700 H   0  0  0  0  0  0  0  0  0  0  0  0
   28.6000   17.1200    8.7600 C   0  0  0  0  0  0  0  0  0  0  0  0
   28.9200   16.8300    7.7600 H   0  0  0  0  0  0  0  0  0  0  0  0
   27.6300   16.4500    9.5400 C   0  0  0  0  0  0  0  0  0  0  0  0
   27.5000   17.1500   10.7700 S   0  0  0  0  0  0  0  0  0  0  0  0
   28.3900   18.2500   10.7400 N   0  0  0  0  0  0  0  0  0  0  0  0
  1  6  1  0  0  0  0
  2  3  1  0  0  0  0
  2  4  1  0  0  0  0
  2  8  2  0  0  0  0
  4  5  1  0  0  0  0
  4  6  2  0  0  0  0
  6  7  1  0  0  0  0
  7  8  1  0  0  0  0
A    1
R
M  END
