lig_42
  PyMOL2.3          3D                             0

 18 19  0  0  0  0  0  0  0  0999 V2000
   -1.5800  -46.4100    7.5800 R   0  0  0  0  0  0  0  0  0  0  0  0
   -2.5600  -46.5100    8.5300 C   0  0  0  0  0  0  0  0  0  0  0  0
   -2.3100  -47.1600    9.7200 C   0  0  0  0  0  0  0  0  0  0  0  0
   -1.3500  -47.5900    9.9200 H   0  0  0  0  0  0  0  0  0  0  0  0
   -3.3400  -47.2300   10.6600 C   0  0  0  0  0  0  0  0  0  0  0  0
   -3.1600  -47.7300   11.6000 H   0  0  0  0  0  0  0  0  0  0  0  0
   -4.5900  -46.6800   10.4100 C   0  0  0  0  0  0  0  0  0  0  0  0
   -5.3800  -46.7500   11.1500 H   0  0  0  0  0  0  0  0  0  0  0  0
   -4.8200  -46.0300    9.2100 C   0  0  0  0  0  0  0  0  0  0  0  0
   -3.8000  -45.9500    8.2700 C   0  0  0  0  0  0  0  0  0  0  0  0
   -4.0400  -45.2800    7.0400 C   0  0  0  0  0  0  0  0  0  0  0  0
   -3.2400  -45.2000    6.3100 H   0  0  0  0  0  0  0  0  0  0  0  0
   -5.2800  -44.7100    6.7600 C   0  0  0  0  0  0  0  0  0  0  0  0
   -5.4500  -44.2000    5.8200 H   0  0  0  0  0  0  0  0  0  0  0  0
   -6.3100  -44.8000    7.7000 C   0  0  0  0  0  0  0  0  0  0  0  0
   -7.2700  -44.3600    7.4800 H   0  0  0  0  0  0  0  0  0  0  0  0
   -6.1000  -45.4500    8.9100 C   0  0  0  0  0  0  0  0  0  0  0  0
   -6.9000  -45.5200    9.6300 H   0  0  0  0  0  0  0  0  0  0  0  0
  1  2  1  0  0  0  0
  2  3  1  0  0  0  0
  2 10  2  0  0  0  0
  3  4  1  0  0  0  0
  3  5  2  0  0  0  0
  5  6  1  0  0  0  0
  5  7  1  0  0  0  0
  7  8  1  0  0  0  0
  7  9  2  0  0  0  0
  9 10  1  0  0  0  0
  9 17  1  0  0  0  0
 10 11  1  0  0  0  0
 11 12  1  0  0  0  0
 11 13  2  0  0  0  0
 13 14  1  0  0  0  0
 13 15  1  0  0  0  0
 15 16  1  0  0  0  0
 15 17  2  0  0  0  0
 17 18  1  0  0  0  0
M  END
