lig_41
  PyMOL2.3          3D                             0

 23 24  0  0  0  0  0  0  0  0999 V2000
   -1.5900  -46.2900    7.3300 R   0  0  0  0  0  0  0  0  0  0  0  0
   -2.6600  -46.2600    8.1900 C   0  0  0  0  0  0  0  0  0  0  0  0
   -2.6200  -46.9200    9.3900 C   0  0  0  0  0  0  0  0  0  0  0  0
   -1.7400  -47.4900    9.6800 H   0  0  0  0  0  0  0  0  0  0  0  0
   -3.7300  -46.8600   10.2300 C   0  0  0  0  0  0  0  0  0  0  0  0
   -3.7000  -47.3800   11.1800 H   0  0  0  0  0  0  0  0  0  0  0  0
   -4.8700  -46.1400    9.8700 C   0  0  0  0  0  0  0  0  0  0  0  0
   -5.9900  -46.0900   10.7500 O   0  0  0  0  0  0  0  0  0  0  0  0
   -4.8900  -45.4700    8.6600 C   0  0  0  0  0  0  0  0  0  0  0  0
   -5.7700  -44.9100    8.3700 H   0  0  0  0  0  0  0  0  0  0  0  0
   -3.7800  -45.5300    7.8200 C   0  0  0  0  0  0  0  0  0  0  0  0
   -3.8000  -45.0000    6.8700 H   0  0  0  0  0  0  0  0  0  0  0  0
   -9.2000  -43.8500    9.3600 C   0  0  0  0  0  0  0  0  0  0  0  0
  -10.0400  -43.2600    8.9900 H   0  0  0  0  0  0  0  0  0  0  0  0
   -9.1100  -45.2100    9.0600 C   0  0  0  0  0  0  0  0  0  0  0  0
   -9.8900  -45.6800    8.4600 H   0  0  0  0  0  0  0  0  0  0  0  0
   -8.0400  -45.9600    9.5300 C   0  0  0  0  0  0  0  0  0  0  0  0
   -7.9700  -47.0200    9.2900 H   0  0  0  0  0  0  0  0  0  0  0  0
   -7.0400  -45.3500   10.2900 C   0  0  0  0  0  0  0  0  0  0  0  0
   -7.1300  -43.9900   10.5900 C   0  0  0  0  0  0  0  0  0  0  0  0
   -6.3500  -43.5200   11.1900 H   0  0  0  0  0  0  0  0  0  0  0  0
   -8.2000  -43.2400   10.1200 C   0  0  0  0  0  0  0  0  0  0  0  0
   -8.2700  -42.1800   10.3600 H   0  0  0  0  0  0  0  0  0  0  0  0
  1  2  1  0  0  0  0
  2  3  1  0  0  0  0
  2 11  2  0  0  0  0
  3  4  1  0  0  0  0
  3  5  2  0  0  0  0
  5  6  1  0  0  0  0
  5  7  1  0  0  0  0
  7  8  1  0  0  0  0
  7  9  2  0  0  0  0
  8 19  1  0  0  0  0
  9 10  1  0  0  0  0
  9 11  1  0  0  0  0
 11 12  1  0  0  0  0
 13 14  1  0  0  0  0
 13 15  2  0  0  0  0
 13 22  1  0  0  0  0
 15 16  1  0  0  0  0
 15 17  1  0  0  0  0
 17 18  1  0  0  0  0
 17 19  2  0  0  0  0
 19 20  1  0  0  0  0
 20 21  1  0  0  0  0
 20 22  2  0  0  0  0
 22 23  1  0  0  0  0
M  END
