lig_38
  PyMOL2.3          3D                             0

 22 23  0  0  0  0  0  0  0  0999 V2000
   -1.5900  -46.2900    7.3300 R   0  0  0  0  0  0  0  0  0  0  0  0
   -2.6600  -46.2600    8.1900 C   0  0  0  0  0  0  0  0  0  0  0  0
   -2.6200  -46.9200    9.3900 C   0  0  0  0  0  0  0  0  0  0  0  0
   -1.7400  -47.4900    9.6800 H   0  0  0  0  0  0  0  0  0  0  0  0
   -3.7300  -46.8600   10.2300 C   0  0  0  0  0  0  0  0  0  0  0  0
   -3.7000  -47.3800   11.1800 H   0  0  0  0  0  0  0  0  0  0  0  0
   -4.8700  -46.1400    9.8700 C   0  0  0  0  0  0  0  0  0  0  0  0
   -5.7200  -46.1000   10.5400 H   0  0  0  0  0  0  0  0  0  0  0  0
   -4.8900  -45.4700    8.6600 C   0  0  0  0  0  0  0  0  0  0  0  0
   -3.7800  -45.5300    7.8200 C   0  0  0  0  0  0  0  0  0  0  0  0
   -3.8000  -45.0000    6.8700 H   0  0  0  0  0  0  0  0  0  0  0  0
   -8.2600  -43.3200    7.5400 C   0  0  0  0  0  0  0  0  0  0  0  0
   -9.1400  -42.7500    7.2400 H   0  0  0  0  0  0  0  0  0  0  0  0
   -7.5600  -42.9700    8.6900 C   0  0  0  0  0  0  0  0  0  0  0  0
   -7.8900  -42.1300    9.3000 H   0  0  0  0  0  0  0  0  0  0  0  0
   -6.4300  -43.6900    9.0700 C   0  0  0  0  0  0  0  0  0  0  0  0
   -5.8800  -43.4100    9.9700 H   0  0  0  0  0  0  0  0  0  0  0  0
   -6.0000  -44.7700    8.2900 C   0  0  0  0  0  0  0  0  0  0  0  0
   -6.7000  -45.1200    7.1400 C   0  0  0  0  0  0  0  0  0  0  0  0
   -6.3600  -45.9600    6.5300 H   0  0  0  0  0  0  0  0  0  0  0  0
   -7.8300  -44.3900    6.7600 C   0  0  0  0  0  0  0  0  0  0  0  0
   -8.3700  -44.6700    5.8600 H   0  0  0  0  0  0  0  0  0  0  0  0
  1  2  1  0  0  0  0
  2  3  1  0  0  0  0
  2 10  2  0  0  0  0
  3  4  1  0  0  0  0
  3  5  2  0  0  0  0
  5  6  1  0  0  0  0
  5  7  1  0  0  0  0
  7  8  1  0  0  0  0
  7  9  2  0  0  0  0
  9 10  1  0  0  0  0
  9 18  1  0  0  0  0
 10 11  1  0  0  0  0
 12 13  1  0  0  0  0
 12 14  2  0  0  0  0
 12 21  1  0  0  0  0
 14 15  1  0  0  0  0
 14 16  1  0  0  0  0
 16 17  1  0  0  0  0
 16 18  2  0  0  0  0
 18 19  1  0  0  0  0
 19 20  1  0  0  0  0
 19 21  2  0  0  0  0
 21 22  1  0  0  0  0
M  END
