lig_31
  PyMOL2.3          3D                             0

 15 15  0  0  0  0  0  0  0  0999 V2000
   -1.8418  -46.3625    7.5970 R   0  0  0  0  0  0  0  0  0  0  0  0
   -2.6800  -46.2900    8.2900 C   0  0  0  0  0  0  0  0  0  0  0  0
   -2.6200  -46.9400    9.5000 C   0  0  0  0  0  0  0  0  0  0  0  0
   -1.7400  -47.5100    9.7700 H   0  0  0  0  0  0  0  0  0  0  0  0
   -3.7000  -46.8300   10.3800 C   0  0  0  0  0  0  0  0  0  0  0  0
   -3.6400  -47.4900   11.6400 C   0  0  0  0  0  0  0  0  0  0  0  0
   -2.4300  -48.1600   11.7600 F   0  0  0  0  0  0  0  0  0  0  0  0
   -4.6800  -48.4000   11.7400 F   0  0  0  0  0  0  0  0  0  0  0  0
   -3.7500  -46.5500   12.6600 F   0  0  0  0  0  0  0  0  0  0  0  0
   -4.8300  -46.0900   10.0400 C   0  0  0  0  0  0  0  0  0  0  0  0
   -5.6600  -46.0200   10.7300 H   0  0  0  0  0  0  0  0  0  0  0  0
   -4.8800  -45.4500    8.8200 C   0  0  0  0  0  0  0  0  0  0  0  0
   -5.7600  -44.8700    8.5400 H   0  0  0  0  0  0  0  0  0  0  0  0
   -3.8000  -45.5400    7.9400 C   0  0  0  0  0  0  0  0  0  0  0  0
   -3.8400  -45.0400    6.9900 H   0  0  0  0  0  0  0  0  0  0  0  0
  1  2  1  0  0  0  0
  2  3  1  0  0  0  0
  2 14  2  0  0  0  0
  3  4  1  0  0  0  0
  3  5  2  0  0  0  0
  5  6  1  0  0  0  0
  5 10  1  0  0  0  0
  6  7  1  0  0  0  0
  6  8  1  0  0  0  0
  6  9  1  0  0  0  0
 10 11  1  0  0  0  0
 10 12  2  0  0  0  0
 12 13  1  0  0  0  0
 12 14  1  0  0  0  0
 14 15  1  0  0  0  0
M  END
