lig_CAT-13b
  PyMOL2.3          3D                             0

  8  7  0  0  1  0  0  0  0  0999 V2000
   15.7308   -4.6223   -0.7512 H   0  0  0  0  0  0  0  0  0  0  0  0
   14.9600   -2.7100   -0.9300 R   0  0  1  0  0  0  0  0  0  0  0  0
   15.3500   -3.9500   -1.5200 C   0  0  0  0  0  0  0  0  0  0  0  0
   16.1300   -3.7700   -2.2600 H   0  0  0  0  0  0  0  0  0  0  0  0
   14.2100   -4.5400   -2.1600 C   0  0  0  0  0  0  0  0  0  0  0  0
   13.4300   -4.7200   -1.4300 H   0  0  0  0  0  0  0  0  0  0  0  0
   14.5100   -5.4900   -2.6200 H   0  0  0  0  0  0  0  0  0  0  0  0
   13.8400   -3.8700   -2.9300 H   0  0  0  0  0  0  0  0  0  0  0  0
  2  3  1  6  0  0  0
  1  3  1  0  0  0  0
  3  4  1  0  0  0  0
  3  5  1  0  0  0  0
  5  6  1  0  0  0  0
  5  7  1  0  0  0  0
  5  8  1  0  0  0  0
M  END
