lig_32_L
  PyMOL2.3          3D                             0

 29 29  0  0  1  0  0  0  0  0999 V2000
   15.7960  -11.3020   17.4660 C   0  0  0  0  0  0  0  0  0  0  0  0
   16.3050  -12.6100   17.7360 O   0  0  0  0  0  0  0  0  0  0  0  0
   17.7170  -12.6300   17.5050 C   0  0  0  0  0  0  0  0  0  0  0  0
   15.9460  -10.8170   19.8010 O   0  0  0  0  0  0  0  0  0  0  0  0
   17.3650  -10.9450   19.9260 C   0  0  0  0  0  0  0  0  0  0  0  0
   17.7350  -11.1100   21.4120 C   0  0  0  0  0  0  0  0  0  0  0  0
   19.2360  -11.4350   21.5340 C   0  0  0  0  0  0  0  0  0  0  0  0
   19.4180  -12.9480   21.7570 C   0  0  0  0  0  0  0  0  0  0  0  0
   15.4910  -10.9380   16.2090 C   0  0  0  0  0  0  0  0  0  0  0  0
   14.9940   -9.6730   15.9150 C   0  0  0  0  0  0  0  0  0  0  0  0
   14.7990   -8.7380   16.9380 C   0  0  0  0  0  0  0  0  0  0  0  0
   15.1230   -9.1390   18.2420 C   0  0  0  0  0  0  0  0  0  0  0  0
   15.6180  -10.4230   18.4660 C   0  0  0  0  0  0  0  0  0  0  0  0
   14.2470   -7.3370   16.6190 R   0  0  1  0  0  0  0  0  0  0  0  0
   15.6370  -11.6530   15.3990 H   0  0  0  0  0  0  0  0  0  0  0  0
   17.5190  -10.1860   21.9460 H   0  0  0  0  0  0  0  0  0  0  0  0
   14.7560   -9.4090   14.8850 H   0  0  0  0  0  0  0  0  0  0  0  0
   14.9890   -8.4500   19.0760 H   0  0  0  0  0  0  0  0  0  0  0  0
   17.8470  -10.0510   19.5290 H   0  0  0  0  0  0  0  0  0  0  0  0
   18.0540  -11.6320   17.2290 H   0  0  0  0  0  0  0  0  0  0  0  0
   17.9440  -13.3280   16.6990 H   0  0  0  0  0  0  0  0  0  0  0  0
   20.4200  -13.1420   22.1380 H   0  0  0  0  0  0  0  0  0  0  0  0
   17.7020  -11.8180   19.3690 H   0  0  0  0  0  0  0  0  0  0  0  0
   17.1520  -11.9240   21.8430 H   0  0  0  0  0  0  0  0  0  0  0  0
   18.2280  -12.9480   18.4140 H   0  0  0  0  0  0  0  0  0  0  0  0
   19.6590  -10.8900   22.3780 H   0  0  0  0  0  0  0  0  0  0  0  0
   19.7470  -11.1400   20.6180 H   0  0  0  0  0  0  0  0  0  0  0  0
   19.2790  -13.4740   20.8130 H   0  0  0  0  0  0  0  0  0  0  0  0
   18.6810  -13.2990   22.4800 H   0  0  0  0  0  0  0  0  0  0  0  0
  1  2  1  0  0  0  0
  1  9  2  0  0  0  0
  1 13  1  0  0  0  0
  2  3  1  0  0  0  0
  3 20  1  0  0  0  0
  3 21  1  0  0  0  0
  3 25  1  0  0  0  0
  4  5  1  0  0  0  0
  4 13  1  0  0  0  0
  5  6  1  0  0  0  0
  5 19  1  0  0  0  0
  5 23  1  0  0  0  0
  6  7  1  0  0  0  0
  6 16  1  0  0  0  0
  6 24  1  0  0  0  0
  7  8  1  0  0  0  0
  7 26  1  0  0  0  0
  7 27  1  0  0  0  0
  8 22  1  0  0  0  0
  8 28  1  0  0  0  0
  8 29  1  0  0  0  0
  9 10  1  0  0  0  0
  9 15  1  0  0  0  0
 10 11  2  0  0  0  0
 10 17  1  0  0  0  0
 11 12  1  0  0  0  0
 12 13  2  0  0  0  0
 12 18  1  0  0  0  0
 11 14  1  1  0  0  0
M  END
