2ZFF
 OpenBabel01202212403D

 42 43  0  0  0  0  0  0  0  0999 V2000
   18.1720  -14.9170   24.5950 C   0  0  0  0  0  0  0  0  0  0  0  0
   16.3900  -15.7830   23.1600 N   0  3  0  0  0  0  0  0  0  0  0  0
   16.5060  -12.9450   23.0320 O   0  0  0  0  0  0  0  0  0  0  0  0
   17.6570  -15.0120   23.1460 C   0  0  1  0  0  0  0  0  0  0  0  0
   18.2450  -13.1710   21.5890 N   0  0  0  0  0  0  0  0  0  0  0  0
   16.2150  -12.7280   19.9260 O   0  0  0  0  0  0  0  0  0  0  0  0
   17.4360  -13.6310   22.5680 C   0  0  0  0  0  0  0  0  0  0  0  0
   15.9710  -10.5760   20.7540 N   0  0  0  0  0  0  0  0  0  0  0  0
   19.3760  -13.9390   21.0230 C   0  0  0  0  0  0  0  0  0  0  0  0
   20.1040  -12.7670   20.3170 C   0  0  0  0  0  0  0  0  0  0  0  0
   18.9440  -11.8950   19.8030 C   0  0  0  0  0  0  0  0  0  0  0  0
   18.0280  -11.8220   21.0620 C   0  0  1  0  0  0  0  0  0  0  0  0
   16.6090  -11.7290   20.5280 C   0  0  0  0  0  0  0  0  0  0  0  0
   14.6590  -10.4300   20.1130 C   0  0  0  0  0  0  0  0  0  0  0  0
   19.5920  -14.3710   24.7440 C   0  0  0  0  0  0  0  0  0  0  0  0
   20.6910  -14.9640   24.0890 C   0  0  0  0  0  0  0  0  0  0  0  0
   21.9860  -14.4540   24.2350 C   0  0  0  0  0  0  0  0  0  0  0  0
   22.1890  -13.3330   25.0460 C   0  0  0  0  0  0  0  0  0  0  0  0
   21.1010  -12.7410   25.6970 C   0  0  0  0  0  0  0  0  0  0  0  0
   19.8220  -13.2490   25.5510 C   0  0  0  0  0  0  0  0  0  0  0  0
   18.1479  -15.8985   25.0204 H   0  0  0  0  0  0  0  0  0  0  0  0
   17.5311  -14.2205   25.0940 H   0  0  0  0  0  0  0  0  0  0  0  0
   16.5598  -16.7091   23.5524 H   0  0  0  0  0  0  0  0  0  0  0  0
   16.0385  -15.8768   22.2071 H   0  0  0  0  0  0  0  0  0  0  0  0
   15.7003  -15.2934   23.7302 H   0  0  0  0  0  0  0  0  0  0  0  0
   18.3796  -15.5050   22.5298 H   0  0  0  0  0  0  0  0  0  0  0  0
   16.3583   -9.8672   21.3169 H   0  0  0  0  0  0  0  0  0  0  0  0
   19.0509  -14.6887   20.3322 H   0  0  0  0  0  0  0  0  0  0  0  0
   19.9594  -14.4992   21.7236 H   0  0  0  0  0  0  0  0  0  0  0  0
   20.7066  -13.1213   19.5069 H   0  0  0  0  0  0  0  0  0  0  0  0
   20.7741  -12.2382   20.9621 H   0  0  0  0  0  0  0  0  0  0  0  0
   18.4412  -12.3589   18.9803 H   0  0  0  0  0  0  0  0  0  0  0  0
   19.2488  -10.9398   19.4295 H   0  0  0  0  0  0  0  0  0  0  0  0
   18.2012  -11.0300   21.7603 H   0  0  0  0  0  0  0  0  0  0  0  0
   14.4356  -11.3136   19.5524 H   0  0  0  0  0  0  0  0  0  0  0  0
   14.6749   -9.5854   19.4562 H   0  0  0  0  0  0  0  0  0  0  0  0
   13.9098  -10.2845   20.8630 H   0  0  0  0  0  0  0  0  0  0  0  0
   20.5373  -15.7903   23.4902 H   0  0  0  0  0  0  0  0  0  0  0  0
   22.7809  -14.8994   23.7504 H   0  0  0  0  0  0  0  0  0  0  0  0
   23.1375  -12.9439   25.1639 H   0  0  0  0  0  0  0  0  0  0  0  0
   21.2545  -11.9137   26.2946 H   0  0  0  0  0  0  0  0  0  0  0  0
   19.0326  -12.7985   26.0397 H   0  0  0  0  0  0  0  0  0  0  0  0
  1  4  1  0  0  0  0
  1 15  1  0  0  0  0
  1 21  1  0  0  0  0
  1 22  1  0  0  0  0
  2  4  1  0  0  0  0
  2 23  1  0  0  0  0
  2 24  1  0  0  0  0
  2 25  1  0  0  0  0
  3  7  2  0  0  0  0
  4  7  1  0  0  0  0
  4 26  1  6  0  0  0
  5  7  1  0  0  0  0
  5  9  1  0  0  0  0
  5 12  1  0  0  0  0
  6 13  2  0  0  0  0
  8 13  1  0  0  0  0
  8 14  1  0  0  0  0
  8 27  1  0  0  0  0
  9 10  1  0  0  0  0
  9 28  1  0  0  0  0
  9 29  1  0  0  0  0
 10 11  1  0  0  0  0
 10 30  1  0  0  0  0
 10 31  1  0  0  0  0
 11 12  1  0  0  0  0
 11 32  1  0  0  0  0
 11 33  1  0  0  0  0
 12 13  1  0  0  0  0
 12 34  1  1  0  0  0
 14 35  1  0  0  0  0
 14 36  1  0  0  0  0
 14 37  1  0  0  0  0
 15 16  2  0  0  0  0
 15 20  1  0  0  0  0
 16 17  1  0  0  0  0
 16 38  1  0  0  0  0
 17 18  2  0  0  0  0
 17 39  1  0  0  0  0
 18 19  1  0  0  0  0
 18 40  1  0  0  0  0
 19 20  2  0  0  0  0
 19 41  1  0  0  0  0
 20 42  1  0  0  0  0
M  CHG  1   2   1
M  END
$$$$
