lig_p38a_2z
 OpenBabel11122110533D

 15 14  0  0  0  0  0  0  0  0999 V2000
   33.6700   39.5700   24.9300 *   0  0  0  0  0  0  0  0  0  0  0  0
   33.1200   38.7100   26.0600 C   0  0  0  0  0  0  0  0  0  0  0  0
   34.0000   38.8900   27.3100 C   0  0  0  0  0  0  0  0  0  0  0  0
   31.6800   39.1500   26.3800 C   0  0  0  0  0  0  0  0  0  0  0  0
   33.1300   37.2300   25.6400 C   0  0  0  0  0  0  0  0  0  0  0  0
   31.2900   38.5300   27.1900 H   0  0  0  0  0  0  0  0  0  0  0  0
   31.6800   40.1900   26.6800 H   0  0  0  0  0  0  0  0  0  0  0  0
   31.0600   39.0200   25.5000 H   0  0  0  0  0  0  0  0  0  0  0  0
   32.7400   36.6200   26.4500 H   0  0  0  0  0  0  0  0  0  0  0  0
   32.5100   37.1000   24.7500 H   0  0  0  0  0  0  0  0  0  0  0  0
   34.1600   36.9200   25.4100 H   0  0  0  0  0  0  0  0  0  0  0  0
   33.5000   38.1000   28.3600 O   0  0  0  0  0  0  0  0  0  0  0  0
   35.0300   38.5900   27.0900 H   0  0  0  0  0  0  0  0  0  0  0  0
   34.0000   39.9400   27.6100 H   0  0  0  0  0  0  0  0  0  0  0  0
   34.0500   38.2200   29.1400 H   0  0  0  0  0  0  0  0  0  0  0  0
  1  2  1  0  0  0  0
  2  3  1  0  0  0  0
  2  4  1  0  0  0  0
  2  5  1  0  0  0  0
  3 12  1  0  0  0  0
  3 13  1  0  0  0  0
  3 14  1  0  0  0  0
  4  6  1  0  0  0  0
  4  7  1  0  0  0  0
  4  8  1  0  0  0  0
  5  9  1  0  0  0  0
  5 10  1  0  0  0  0
  5 11  1  0  0  0  0
 12 15  1  0  0  0  0
A    1
R
M  END
