lig_23466
  PyMOL2.3          3D                             0

  4  3  0  0  0  0  0  0  0  0999 V2000
   40.7400    9.7900   16.8400 R   0  0  0  0  0  0  0  0  0  0  0  0
   39.4000    9.3800   16.7700 N   0  0  0  0  0  0  0  0  0  0  0  0
   38.7500   10.0600   16.4100 H   0  0  0  0  0  0  0  0  0  0  0  0
   39.1400    8.4500   17.0700 H   0  0  0  0  0  0  0  0  0  0  0  0
  1  2  1  0  0  0  0
  2  3  1  0  0  0  0
  2  4  1  0  0  0  0
M  END
