lig_CAT-13j
 OpenBabel11122102133D

 11 11  0  0  0  0  0  0  0  0999 V2000
   14.9600   -2.7100   -0.9300 *   0  0  0  0  0  0  0  0  0  0  0  0
   15.2400   -4.1300   -1.4300 C   0  0  0  0  0  0  0  0  0  0  0  0
   16.3700   -4.8200   -1.0300 C   0  0  0  0  0  0  0  0  0  0  0  0
   16.6000   -6.1300   -1.4400 C   0  0  0  0  0  0  0  0  0  0  0  0
   15.7100   -6.7600   -2.2800 C   0  0  0  0  0  0  0  0  0  0  0  0
   14.5900   -6.0800   -2.7200 C   0  0  0  0  0  0  0  0  0  0  0  0
   14.3500   -4.7800   -2.3100 N   0  0  0  0  0  0  0  0  0  0  0  0
   17.4900   -6.6600   -1.1100 H   0  0  0  0  0  0  0  0  0  0  0  0
   13.8800   -6.5700   -3.3900 H   0  0  0  0  0  0  0  0  0  0  0  0
   15.8800   -7.7900   -2.6000 H   0  0  0  0  0  0  0  0  0  0  0  0
   17.0900   -4.3300   -0.3700 H   0  0  0  0  0  0  0  0  0  0  0  0
  1  2  1  0  0  0  0
  2  3  2  0  0  0  0
  2  7  1  0  0  0  0
  3  4  1  0  0  0  0
  3 11  1  0  0  0  0
  4  5  2  0  0  0  0
  4  8  1  0  0  0  0
  5  6  1  0  0  0  0
  5 10  1  0  0  0  0
  6  7  2  0  0  0  0
  6  9  1  0  0  0  0
M  END
