lig_18626-1
  PyMOL2.3          3D                             0

 12 12  0  0  0  0  0  0  0  0999 V2000
   21.6400    4.6100   30.2450 R   0  0  0  0  0  0  0  0  0  0  0  0
   23.0890    4.4690   30.6920 C   0  0  0  0  0  0  0  0  0  0  0  0
   23.4120    3.6310   31.7620 C   0  0  0  0  0  0  0  0  0  0  0  0
   24.7310    3.5230   32.1960 C   0  0  0  0  0  0  0  0  0  0  0  0
   25.1130    2.5200   33.5450 Cl  0  0  0  0  0  0  0  0  0  0  0  0
   25.7380    4.2390   31.5500 C   0  0  0  0  0  0  0  0  0  0  0  0
   25.4250    5.0710   30.4730 C   0  0  0  0  0  0  0  0  0  0  0  0
   24.1020    5.1880   30.0460 C   0  0  0  0  0  0  0  0  0  0  0  0
   22.6440    3.0570   32.2590 H   0  0  0  0  0  0  0  0  0  0  0  0
   26.7580    4.1510   31.8920 H   0  0  0  0  0  0  0  0  0  0  0  0
   26.2070    5.6290   29.9750 H   0  0  0  0  0  0  0  0  0  0  0  0
   23.8710    5.8360   29.2120 H   0  0  0  0  0  0  0  0  0  0  0  0
  1  2  1  0  0  0  0
  2  3  2  0  0  0  0
  2  8  1  0  0  0  0
  3  4  1  0  0  0  0
  3  9  1  0  0  0  0
  4  5  1  0  0  0  0
  4  6  2  0  0  0  0
  6  7  1  0  0  0  0
  6 10  1  0  0  0  0
  7  8  2  0  0  0  0
  7 11  1  0  0  0  0
  8 12  1  0  0  0  0
M  END
