lig_19
 OpenBabel12152122293D

 16 16  0  0  0  0  0  0  0  0999 V2000
   26.9500   15.3200    9.1900 *   0  0  0  0  0  0  0  0  0  0  0  0
   27.6400   16.5100    9.5400 C   0  0  0  0  0  0  0  0  0  0  0  0
   27.0500   17.4600   10.4000 C   0  0  0  0  0  0  0  0  0  0  0  0
   26.0600   17.2800   10.8100 H   0  0  0  0  0  0  0  0  0  0  0  0
   27.7400   18.6500   10.7300 C   0  0  0  0  0  0  0  0  0  0  0  0
   29.0300   18.9000   10.1900 C   0  0  0  0  0  0  0  0  0  0  0  0
   29.5500   19.8100   10.4400 H   0  0  0  0  0  0  0  0  0  0  0  0
   29.6200   17.9500    9.3100 C   0  0  0  0  0  0  0  0  0  0  0  0
   30.4900   18.1200    8.9500 H   0  0  0  0  0  0  0  0  0  0  0  0
   28.9200   16.7700    8.9900 C   0  0  0  0  0  0  0  0  0  0  0  0
   29.5000   15.8500    8.1200 F   0  0  0  0  0  0  0  0  0  0  0  0
   27.1400   19.6200   11.5900 O   0  0  0  0  0  0  0  0  0  0  0  0
   27.9600   20.7500   11.8900 C   0  0  0  0  0  0  0  0  0  0  0  0
   27.4200   21.4300   12.5400 H   0  0  0  0  0  0  0  0  0  0  0  0
   28.2200   21.2600   10.9600 H   0  0  0  0  0  0  0  0  0  0  0  0
   28.8700   20.4100   12.3800 H   0  0  0  0  0  0  0  0  0  0  0  0
  1  2  1  0  0  0  0
  2  3  2  0  0  0  0
  2 10  1  0  0  0  0
  3  4  1  0  0  0  0
  3  5  1  0  0  0  0
  5  6  2  0  0  0  0
  5 12  1  0  0  0  0
  6  7  1  0  0  0  0
  6  8  1  0  0  0  0
  8  9  1  0  0  0  0
  8 10  2  0  0  0  0
 10 11  1  0  0  0  0
 12 13  1  0  0  0  0
 13 14  1  0  0  0  0
 13 15  1  0  0  0  0
 13 16  1  0  0  0  0
A    1
R
M  END
