best_conformers_13k.pdb
 OpenBabel01202212343D

 45 48  0  0  1  0  0  0  0  0999 V2000
   20.4670   33.5750   56.9730 C   0  0  0  0  0  0  0  0  0  0  0  0
   20.5730   35.8460   56.9400 N   0  3  0  0  0  0  0  0  0  0  0  0
   20.3540   32.3750   56.7020 O   0  0  0  0  0  0  0  0  0  0  0  0
   20.7150   34.7330   55.9860 C   0  0  2  0  0  0  0  0  0  0  0  0
   20.3800   34.0700   58.2410 N   0  0  0  0  0  0  0  0  0  0  0  0
   20.4080   35.4440   58.1550 C   0  0  0  0  0  0  0  0  0  0  0  0
   20.2740   36.2920   59.2160 N   0  0  0  0  0  0  0  0  0  0  0  0
   20.1930   33.2630   59.4450 C   0  0  0  0  0  0  0  0  0  0  0  0
   14.0910   35.5130   56.2290 C   0  0  0  0  0  0  0  0  0  0  0  0
   19.6250   34.7760   54.9320 C   0  0  0  0  0  0  0  0  0  0  0  0
   19.9380   34.7940   53.5670 C   0  0  0  0  0  0  0  0  0  0  0  0
   18.9370   34.7600   52.5970 C   0  0  0  0  0  0  0  0  0  0  0  0
   17.5970   34.7120   52.9760 C   0  0  0  0  0  0  0  0  0  0  0  0
   17.2510   34.7150   54.3350 C   0  0  0  0  0  0  0  0  0  0  0  0
   18.2680   34.7410   55.3080 C   0  0  0  0  0  0  0  0  0  0  0  0
   13.1980   34.5860   55.6800 C   0  0  0  0  0  0  0  0  0  0  0  0
   15.4010   35.5690   55.7590 C   0  0  0  0  0  0  0  0  0  0  0  0
   15.8450   34.7040   54.7500 C   0  0  0  0  0  0  0  0  0  0  0  0
   14.9300   33.8070   54.1790 C   0  0  0  0  0  0  0  0  0  0  0  0
   13.5950   33.7320   54.6350 C   0  0  0  0  0  0  0  0  0  0  0  0
   13.5820   36.5810   57.5020 Cl  0  0  0  0  0  0  0  0  0  0  0  0
   20.5160   36.8300   56.6700 H   0  0  0  0  0  0  0  0  0  0  0  0
   20.2970   37.3000   59.0730 H   0  0  0  0  0  0  0  0  0  0  0  0
   20.1220   35.9000   60.1430 H   0  0  0  0  0  0  0  0  0  0  0  0
   20.2210   32.1970   59.1920 H   0  0  0  0  0  0  0  0  0  0  0  0
   19.2220   33.4710   59.9060 H   0  0  0  0  0  0  0  0  0  0  0  0
   20.9890   33.4470   60.1740 H   0  0  0  0  0  0  0  0  0  0  0  0
   20.9770   34.8310   53.2630 H   0  0  0  0  0  0  0  0  0  0  0  0
   19.1950   34.7660   51.5460 H   0  0  0  0  0  0  0  0  0  0  0  0
   16.8100   34.6860   52.2290 H   0  0  0  0  0  0  0  0  0  0  0  0
   17.9850   34.7180   56.3620 H   0  0  0  0  0  0  0  0  0  0  0  0
   12.1940   34.5350   56.0770 H   0  0  0  0  0  0  0  0  0  0  0  0
   16.0910   36.2880   56.1820 H   0  0  0  0  0  0  0  0  0  0  0  0
   15.3330   33.1520   53.4180 H   0  0  0  0  0  0  0  0  0  0  0  0
   12.8680   33.0190   54.2220 H   0  0  0  0  0  0  0  0  0  0  0  0
   22.1290   34.6690   55.4040 C   0  0  0  0  0  0  0  0  0  0  0  0
   22.9950   35.7830   55.4220 C   0  0  0  0  0  0  0  0  0  0  0  0
   22.6370   36.7170   55.8470 H   0  0  0  0  0  0  0  0  0  0  0  0
   24.2590   35.7550   54.9450 N   0  0  0  0  0  0  0  0  0  0  0  0
   24.6890   34.5890   54.4320 C   0  0  0  0  0  0  0  0  0  0  0  0
   23.9010   33.4390   54.3830 C   0  0  0  0  0  0  0  0  0  0  0  0
   22.6020   33.4630   54.8750 C   0  0  0  0  0  0  0  0  0  0  0  0
   21.9810   32.5670   54.8430 H   0  0  0  0  0  0  0  0  0  0  0  0
   24.3080   32.5320   53.9580 H   0  0  0  0  0  0  0  0  0  0  0  0
   25.6980   34.5400   54.0300 H   0  0  0  0  0  0  0  0  0  0  0  0
  1  3  2  0  0  0  0
  1  4  1  0  0  0  0
  1  5  1  0  0  0  0
  2  4  1  0  0  0  0
  2  6  2  0  0  0  0
  2 22  1  0  0  0  0
  4 10  1  6  0  0  0
  4 36  1  0  0  0  0
  5  6  1  0  0  0  0
  5  8  1  0  0  0  0
  6  7  1  0  0  0  0
  7 23  1  0  0  0  0
  7 24  1  0  0  0  0
  8 25  1  0  0  0  0
  8 26  1  0  0  0  0
  8 27  1  0  0  0  0
  9 16  1  0  0  0  0
  9 17  2  0  0  0  0
  9 21  1  0  0  0  0
 10 11  2  0  0  0  0
 10 15  1  0  0  0  0
 11 12  1  0  0  0  0
 11 28  1  0  0  0  0
 12 13  2  0  0  0  0
 12 29  1  0  0  0  0
 13 14  1  0  0  0  0
 13 30  1  0  0  0  0
 14 15  2  0  0  0  0
 14 18  1  0  0  0  0
 15 31  1  0  0  0  0
 16 20  2  0  0  0  0
 16 32  1  0  0  0  0
 17 18  1  0  0  0  0
 17 33  1  0  0  0  0
 18 19  2  0  0  0  0
 19 20  1  0  0  0  0
 19 34  1  0  0  0  0
 20 35  1  0  0  0  0
 36 37  2  0  0  0  0
 36 42  1  0  0  0  0
 37 38  1  0  0  0  0
 37 39  1  0  0  0  0
 39 40  2  0  0  0  0
 40 41  1  0  0  0  0
 40 45  1  0  0  0  0
 41 42  2  0  0  0  0
 41 44  1  0  0  0  0
 42 43  1  0  0  0  0
M  CHG  1   2   1
M  END
$$$$
