best_conformers_13f.pdb
 OpenBabel01202212343D

 49 52  0  0  1  0  0  0  0  0999 V2000
   20.4880   33.5770   56.9750 C   0  0  0  0  0  0  0  0  0  0  0  0
   20.5300   35.8500   56.9410 N   0  3  0  0  0  0  0  0  0  0  0  0
   20.3670   32.3820   56.6920 O   0  0  0  0  0  0  0  0  0  0  0  0
   20.7180   34.7330   55.9970 C   0  0  2  0  0  0  0  0  0  0  0  0
   20.3910   34.0720   58.2420 N   0  0  0  0  0  0  0  0  0  0  0  0
   20.3940   35.4470   58.1590 C   0  0  0  0  0  0  0  0  0  0  0  0
   20.2750   36.2940   59.2210 N   0  0  0  0  0  0  0  0  0  0  0  0
   20.1940   33.2630   59.4430 C   0  0  0  0  0  0  0  0  0  0  0  0
   14.0910   35.5140   56.2300 C   0  0  0  0  0  0  0  0  0  0  0  0
   19.6320   34.7660   54.9340 C   0  0  0  0  0  0  0  0  0  0  0  0
   19.9420   34.7900   53.5690 C   0  0  0  0  0  0  0  0  0  0  0  0
   18.9390   34.7600   52.5980 C   0  0  0  0  0  0  0  0  0  0  0  0
   17.5990   34.7120   52.9770 C   0  0  0  0  0  0  0  0  0  0  0  0
   17.2530   34.7140   54.3350 C   0  0  0  0  0  0  0  0  0  0  0  0
   18.2730   34.7370   55.3080 C   0  0  0  0  0  0  0  0  0  0  0  0
   13.1980   34.5860   55.6800 C   0  0  0  0  0  0  0  0  0  0  0  0
   15.4010   35.5690   55.7590 C   0  0  0  0  0  0  0  0  0  0  0  0
   15.8460   34.7040   54.7500 C   0  0  0  0  0  0  0  0  0  0  0  0
   14.9300   33.8070   54.1790 C   0  0  0  0  0  0  0  0  0  0  0  0
   13.5950   33.7320   54.6350 C   0  0  0  0  0  0  0  0  0  0  0  0
   13.5810   36.5820   57.5030 Cl  0  0  0  0  0  0  0  0  0  0  0  0
   20.5090   36.8380   56.6740 H   0  0  0  0  0  0  0  0  0  0  0  0
   20.2950   37.3020   59.0760 H   0  0  0  0  0  0  0  0  0  0  0  0
   20.1220   35.9010   60.1470 H   0  0  0  0  0  0  0  0  0  0  0  0
   20.2210   32.1970   59.1900 H   0  0  0  0  0  0  0  0  0  0  0  0
   19.2240   33.4720   59.9030 H   0  0  0  0  0  0  0  0  0  0  0  0
   20.9890   33.4460   60.1730 H   0  0  0  0  0  0  0  0  0  0  0  0
   20.9800   34.8310   53.2620 H   0  0  0  0  0  0  0  0  0  0  0  0
   19.1940   34.7670   51.5470 H   0  0  0  0  0  0  0  0  0  0  0  0
   16.8110   34.6860   52.2300 H   0  0  0  0  0  0  0  0  0  0  0  0
   17.9890   34.7180   56.3620 H   0  0  0  0  0  0  0  0  0  0  0  0
   12.1940   34.5350   56.0770 H   0  0  0  0  0  0  0  0  0  0  0  0
   16.0910   36.2880   56.1820 H   0  0  0  0  0  0  0  0  0  0  0  0
   15.3330   33.1520   53.4180 H   0  0  0  0  0  0  0  0  0  0  0  0
   12.8690   33.0190   54.2220 H   0  0  0  0  0  0  0  0  0  0  0  0
   24.4150   33.9830   56.1740 C   0  0  0  0  0  0  0  0  0  0  0  0
   24.9900   33.6380   57.0400 H   0  0  0  0  0  0  0  0  0  0  0  0
   25.0810   34.5370   55.5050 H   0  0  0  0  0  0  0  0  0  0  0  0
   23.2420   34.8580   56.5840 C   0  0  0  0  0  0  0  0  0  0  0  0
   22.8500   34.5100   57.5450 H   0  0  0  0  0  0  0  0  0  0  0  0
   23.5580   35.8990   56.7030 H   0  0  0  0  0  0  0  0  0  0  0  0
   22.1850   34.7260   55.4670 C   0  0  0  0  0  0  0  0  0  0  0  0
   22.3000   35.5840   54.7980 H   0  0  0  0  0  0  0  0  0  0  0  0
   22.5790   33.4470   54.6990 C   0  0  0  0  0  0  0  0  0  0  0  0
   21.7590   32.7250   54.6270 H   0  0  0  0  0  0  0  0  0  0  0  0
   22.8860   33.7160   53.6840 H   0  0  0  0  0  0  0  0  0  0  0  0
   23.7710   32.8320   55.4280 C   0  0  0  0  0  0  0  0  0  0  0  0
   23.4240   32.0780   56.1420 H   0  0  0  0  0  0  0  0  0  0  0  0
   24.4750   32.3610   54.7360 H   0  0  0  0  0  0  0  0  0  0  0  0
  1  3  2  0  0  0  0
  1  4  1  0  0  0  0
  1  5  1  0  0  0  0
  2  4  1  0  0  0  0
  2  6  2  0  0  0  0
  2 22  1  0  0  0  0
  4 10  1  6  0  0  0
  4 42  1  0  0  0  0
  5  6  1  0  0  0  0
  5  8  1  0  0  0  0
  6  7  1  0  0  0  0
  7 23  1  0  0  0  0
  7 24  1  0  0  0  0
  8 25  1  0  0  0  0
  8 26  1  0  0  0  0
  8 27  1  0  0  0  0
  9 16  1  0  0  0  0
  9 17  2  0  0  0  0
  9 21  1  0  0  0  0
 10 11  2  0  0  0  0
 10 15  1  0  0  0  0
 11 12  1  0  0  0  0
 11 28  1  0  0  0  0
 12 13  2  0  0  0  0
 12 29  1  0  0  0  0
 13 14  1  0  0  0  0
 13 30  1  0  0  0  0
 14 15  2  0  0  0  0
 14 18  1  0  0  0  0
 15 31  1  0  0  0  0
 16 20  2  0  0  0  0
 16 32  1  0  0  0  0
 17 18  1  0  0  0  0
 17 33  1  0  0  0  0
 18 19  2  0  0  0  0
 19 20  1  0  0  0  0
 19 34  1  0  0  0  0
 20 35  1  0  0  0  0
 36 37  1  0  0  0  0
 36 38  1  0  0  0  0
 36 39  1  0  0  0  0
 36 47  1  0  0  0  0
 39 40  1  0  0  0  0
 39 41  1  0  0  0  0
 39 42  1  0  0  0  0
 42 43  1  0  0  0  0
 42 44  1  0  0  0  0
 44 45  1  0  0  0  0
 44 46  1  0  0  0  0
 44 47  1  0  0  0  0
 47 48  1  0  0  0  0
 47 49  1  0  0  0  0
M  CHG  1   2   1
M  END
$$$$
