best_conformers_13h.pdb
 OpenBabel01202212343D

 46 49  0  0  1  0  0  0  0  0999 V2000
   20.4760   33.5770   56.9750 C   0  0  0  0  0  0  0  0  0  0  0  0
   20.5300   35.8430   56.9420 N   0  3  0  0  0  0  0  0  0  0  0  0
   20.3620   32.3790   56.7000 O   0  0  0  0  0  0  0  0  0  0  0  0
   20.7090   34.7260   55.9930 C   0  0  2  0  0  0  0  0  0  0  0  0
   20.3880   34.0710   58.2440 N   0  0  0  0  0  0  0  0  0  0  0  0
   20.3950   35.4440   58.1600 C   0  0  0  0  0  0  0  0  0  0  0  0
   20.2770   36.2930   59.2190 N   0  0  0  0  0  0  0  0  0  0  0  0
   20.1940   33.2630   59.4440 C   0  0  0  0  0  0  0  0  0  0  0  0
   14.0900   35.5140   56.2310 C   0  0  0  0  0  0  0  0  0  0  0  0
   19.6260   34.7660   54.9310 C   0  0  0  0  0  0  0  0  0  0  0  0
   19.9400   34.7910   53.5670 C   0  0  0  0  0  0  0  0  0  0  0  0
   18.9380   34.7600   52.5960 C   0  0  0  0  0  0  0  0  0  0  0  0
   17.5980   34.7120   52.9760 C   0  0  0  0  0  0  0  0  0  0  0  0
   17.2510   34.7150   54.3340 C   0  0  0  0  0  0  0  0  0  0  0  0
   18.2690   34.7370   55.3060 C   0  0  0  0  0  0  0  0  0  0  0  0
   13.1980   34.5870   55.6800 C   0  0  0  0  0  0  0  0  0  0  0  0
   15.4010   35.5690   55.7600 C   0  0  0  0  0  0  0  0  0  0  0  0
   15.8440   34.7050   54.7500 C   0  0  0  0  0  0  0  0  0  0  0  0
   14.9300   33.8060   54.1790 C   0  0  0  0  0  0  0  0  0  0  0  0
   13.5950   33.7320   54.6350 C   0  0  0  0  0  0  0  0  0  0  0  0
   13.5810   36.5830   57.5050 Cl  0  0  0  0  0  0  0  0  0  0  0  0
   20.5110   36.8300   56.6750 H   0  0  0  0  0  0  0  0  0  0  0  0
   20.2950   37.3000   59.0730 H   0  0  0  0  0  0  0  0  0  0  0  0
   20.1220   35.9000   60.1450 H   0  0  0  0  0  0  0  0  0  0  0  0
   20.2210   32.1970   59.1900 H   0  0  0  0  0  0  0  0  0  0  0  0
   19.2230   33.4720   59.9040 H   0  0  0  0  0  0  0  0  0  0  0  0
   20.9890   33.4460   60.1730 H   0  0  0  0  0  0  0  0  0  0  0  0
   20.9800   34.8310   53.2640 H   0  0  0  0  0  0  0  0  0  0  0  0
   19.1940   34.7670   51.5450 H   0  0  0  0  0  0  0  0  0  0  0  0
   16.8090   34.6860   52.2290 H   0  0  0  0  0  0  0  0  0  0  0  0
   17.9880   34.7170   56.3610 H   0  0  0  0  0  0  0  0  0  0  0  0
   12.1940   34.5340   56.0770 H   0  0  0  0  0  0  0  0  0  0  0  0
   16.0920   36.2870   56.1810 H   0  0  0  0  0  0  0  0  0  0  0  0
   15.3340   33.1520   53.4180 H   0  0  0  0  0  0  0  0  0  0  0  0
   12.8690   33.0180   54.2210 H   0  0  0  0  0  0  0  0  0  0  0  0
   22.1710   34.6370   55.4540 C   0  0  0  0  0  0  0  0  0  0  0  0
   22.6210   33.2980   54.8440 C   0  0  0  0  0  0  0  0  0  0  0  0
   23.5120   33.4380   54.2230 H   0  0  0  0  0  0  0  0  0  0  0  0
   21.8350   32.8600   54.2240 H   0  0  0  0  0  0  0  0  0  0  0  0
   22.8810   32.5900   55.6370 H   0  0  0  0  0  0  0  0  0  0  0  0
   23.2810   35.3590   56.2160 C   0  0  0  0  0  0  0  0  0  0  0  0
   24.2800   34.9120   56.2280 H   0  0  0  0  0  0  0  0  0  0  0  0
   23.0130   35.9490   57.0980 H   0  0  0  0  0  0  0  0  0  0  0  0
   22.7950   35.8990   54.8820 C   0  0  0  0  0  0  0  0  0  0  0  0
   22.2030   36.8170   54.9420 H   0  0  0  0  0  0  0  0  0  0  0  0
   23.4880   35.7970   54.0400 H   0  0  0  0  0  0  0  0  0  0  0  0
  1  3  2  0  0  0  0
  1  4  1  0  0  0  0
  1  5  1  0  0  0  0
  2  4  1  0  0  0  0
  2  6  2  0  0  0  0
  2 22  1  0  0  0  0
  4 10  1  6  0  0  0
  4 36  1  0  0  0  0
  5  6  1  0  0  0  0
  5  8  1  0  0  0  0
  6  7  1  0  0  0  0
  7 23  1  0  0  0  0
  7 24  1  0  0  0  0
  8 25  1  0  0  0  0
  8 26  1  0  0  0  0
  8 27  1  0  0  0  0
  9 16  1  0  0  0  0
  9 17  2  0  0  0  0
  9 21  1  0  0  0  0
 10 11  2  0  0  0  0
 10 15  1  0  0  0  0
 11 12  1  0  0  0  0
 11 28  1  0  0  0  0
 12 13  2  0  0  0  0
 12 29  1  0  0  0  0
 13 14  1  0  0  0  0
 13 30  1  0  0  0  0
 14 15  2  0  0  0  0
 14 18  1  0  0  0  0
 15 31  1  0  0  0  0
 16 20  2  0  0  0  0
 16 32  1  0  0  0  0
 17 18  1  0  0  0  0
 17 33  1  0  0  0  0
 18 19  2  0  0  0  0
 19 20  1  0  0  0  0
 19 34  1  0  0  0  0
 20 35  1  0  0  0  0
 36 37  1  0  0  0  0
 36 41  1  0  0  0  0
 36 44  1  0  0  0  0
 37 38  1  0  0  0  0
 37 39  1  0  0  0  0
 37 40  1  0  0  0  0
 41 42  1  0  0  0  0
 41 43  1  0  0  0  0
 41 44  1  0  0  0  0
 44 45  1  0  0  0  0
 44 46  1  0  0  0  0
M  CHG  1   2   1
M  END
$$$$
