lig_CAT-13f
 OpenBabel11122102133D

 15 15  0  0  0  0  0  0  0  0999 V2000
   14.9600   -2.7100   -0.9300 *   0  0  0  0  0  0  0  0  0  0  0  0
   16.7600   -5.8100   -1.3800 C   0  0  0  0  0  0  0  0  0  0  0  0
   17.3800   -6.3400   -0.6500 H   0  0  0  0  0  0  0  0  0  0  0  0
   17.1900   -6.0000   -2.3700 H   0  0  0  0  0  0  0  0  0  0  0  0
   16.7300   -4.3200   -1.0900 C   0  0  0  0  0  0  0  0  0  0  0  0
   17.5000   -3.7700   -1.6300 H   0  0  0  0  0  0  0  0  0  0  0  0
   16.8700   -4.1400   -0.0200 H   0  0  0  0  0  0  0  0  0  0  0  0
   15.3300   -3.8900   -1.5000 C   0  0  0  0  0  0  0  0  0  0  0  0
   15.2600   -3.7800   -2.5900 H   0  0  0  0  0  0  0  0  0  0  0  0
   14.4700   -5.0500   -1.0300 C   0  0  0  0  0  0  0  0  0  0  0  0
   13.4900   -5.0800   -1.5200 H   0  0  0  0  0  0  0  0  0  0  0  0
   14.3000   -4.9800    0.0500 H   0  0  0  0  0  0  0  0  0  0  0  0
   15.3100   -6.2900   -1.3400 C   0  0  0  0  0  0  0  0  0  0  0  0
   15.0300   -6.7000   -2.3100 H   0  0  0  0  0  0  0  0  0  0  0  0
   15.1600   -7.0700   -0.5900 H   0  0  0  0  0  0  0  0  0  0  0  0
  1  8  1  0  0  0  0
  2  3  1  0  0  0  0
  2  4  1  0  0  0  0
  2  5  1  0  0  0  0
  2 13  1  0  0  0  0
  5  6  1  0  0  0  0
  5  7  1  0  0  0  0
  5  8  1  0  0  0  0
  8  9  1  0  0  0  0
  8 10  1  0  0  0  0
 10 11  1  0  0  0  0
 10 12  1  0  0  0  0
 10 13  1  0  0  0  0
 13 14  1  0  0  0  0
 13 15  1  0  0  0  0
M  END
