lig_48
  PyMOL2.3          3D                             0

 16 17  0  0  0  0  0  0  0  0999 V2000
   -1.5300  -46.3400    7.5000 R   0  0  0  0  0  0  0  0  0  0  0  0
   -2.5500  -46.4800    8.4100 C   0  0  0  0  0  0  0  0  0  0  0  0
   -3.7600  -45.8600    8.2100 C   0  0  0  0  0  0  0  0  0  0  0  0
   -4.7700  -46.0300    9.1500 C   0  0  0  0  0  0  0  0  0  0  0  0
   -4.5700  -46.8300   10.2800 C   0  0  0  0  0  0  0  0  0  0  0  0
   -5.3600  -46.9500   11.0100 H   0  0  0  0  0  0  0  0  0  0  0  0
   -3.3500  -47.4500   10.4700 C   0  0  0  0  0  0  0  0  0  0  0  0
   -3.1800  -48.0700   11.3400 H   0  0  0  0  0  0  0  0  0  0  0  0
   -2.3400  -47.2800    9.5200 C   0  0  0  0  0  0  0  0  0  0  0  0
   -1.3800  -47.7700    9.6600 H   0  0  0  0  0  0  0  0  0  0  0  0
   -5.8800  -45.3200    8.7500 N   0  0  0  0  0  0  0  0  0  0  0  0
   -6.7600  -45.2600    9.2300 H   0  0  0  0  0  0  0  0  0  0  0  0
   -5.5500  -44.6800    7.5200 C   0  0  0  0  0  0  0  0  0  0  0  0
   -6.2100  -44.0400    6.9400 H   0  0  0  0  0  0  0  0  0  0  0  0
   -4.2200  -45.0200    7.1900 C   0  0  0  0  0  0  0  0  0  0  0  0
   -3.6600  -44.7000    6.3200 H   0  0  0  0  0  0  0  0  0  0  0  0
  1  2  1  0  0  0  0
  2  3  2  0  0  0  0
  2  9  1  0  0  0  0
  3  4  1  0  0  0  0
  3 15  1  0  0  0  0
  4  5  2  0  0  0  0
  4 11  1  0  0  0  0
  5  6  1  0  0  0  0
  5  7  1  0  0  0  0
  7  8  1  0  0  0  0
  7  9  2  0  0  0  0
  9 10  1  0  0  0  0
 11 12  1  0  0  0  0
 11 13  1  0  0  0  0
 13 14  1  0  0  0  0
 13 15  2  0  0  0  0
 15 16  1  0  0  0  0
M  END
