lig_p38a_2v
 OpenBabel11122110533D

  5  4  0  0  0  0  0  0  0  0999 V2000
   33.1600   38.9300   26.1300 C   0  0  0  0  0  0  0  0  0  0  0  0
   33.6700   39.5700   24.9300 *   0  0  0  0  0  0  0  0  0  0  0  0
   33.4900   37.8900   26.1500 H   0  0  0  0  0  0  0  0  0  0  0  0
   33.5300   39.4600   27.0100 H   0  0  0  0  0  0  0  0  0  0  0  0
   32.0700   38.9700   26.1300 H   0  0  0  0  0  0  0  0  0  0  0  0
  1  2  1  0  0  0  0
  1  3  1  0  0  0  0
  1  4  1  0  0  0  0
  1  5  1  0  0  0  0
A    2
R
M  END
