lig_CAT-13h
 OpenBabel11122102133D

 12 12  0  0  0  0  0  0  0  0999 V2000
   14.9600   -2.7100   -0.9300 *   0  0  0  0  0  0  0  0  0  0  0  0
   15.3300   -3.8900   -1.5000 C   0  0  0  0  0  0  0  0  0  0  0  0
   14.3900   -4.2200   -2.5200 C   0  0  0  0  0  0  0  0  0  0  0  0
   14.6900   -5.1700   -2.9800 H   0  0  0  0  0  0  0  0  0  0  0  0
   14.3900   -3.4400   -3.2800 H   0  0  0  0  0  0  0  0  0  0  0  0
   13.4000   -4.3200   -2.0900 H   0  0  0  0  0  0  0  0  0  0  0  0
   16.7900   -4.1900   -1.6300 C   0  0  0  0  0  0  0  0  0  0  0  0
   17.5300   -3.4700   -1.2900 H   0  0  0  0  0  0  0  0  0  0  0  0
   17.1600   -4.7000   -2.5200 H   0  0  0  0  0  0  0  0  0  0  0  0
   15.9600   -4.9400   -0.6300 C   0  0  0  0  0  0  0  0  0  0  0  0
   15.7300   -5.9900   -0.7900 H   0  0  0  0  0  0  0  0  0  0  0  0
   16.0900   -4.7500    0.4400 H   0  0  0  0  0  0  0  0  0  0  0  0
  1  2  1  0  0  0  0
  2  3  1  0  0  0  0
  2  7  1  0  0  0  0
  2 10  1  0  0  0  0
  3  4  1  0  0  0  0
  3  5  1  0  0  0  0
  3  6  1  0  0  0  0
  7  8  1  0  0  0  0
  7  9  1  0  0  0  0
  7 10  1  0  0  0  0
 10 11  1  0  0  0  0
 10 12  1  0  0  0  0
M  END
