lig_36_L
  PyMOL2.3          3D                             0

 16 16  0  0  1  0  0  0  0  0999 V2000
   14.9269   -8.3892   19.0668 H   0  0  0  0  0  0  0  0  0  0  0  0
   14.8250   -9.4666   14.8986 H   0  0  0  0  0  0  0  0  0  0  0  0
   15.8090  -11.2720   17.5710 C   0  0  0  0  0  0  0  0  0  0  0  0
   16.3250  -12.5660   17.8940 O   0  0  0  0  0  0  0  0  0  0  0  0
   17.6940  -12.6500   17.4880 C   0  0  0  0  0  0  0  0  0  0  0  0
   15.7560  -11.8640   15.3280 F   0  0  0  0  0  0  0  0  0  0  0  0
   15.5930  -10.3670   18.5400 C   0  0  0  0  0  0  0  0  0  0  0  0
   15.0920   -9.1010   18.2580 C   0  0  0  0  0  0  0  0  0  0  0  0
   14.7990   -8.7380   16.9380 C   0  0  0  0  0  0  0  0  0  0  0  0
   15.0340   -9.6980   15.9430 C   0  0  0  0  0  0  0  0  0  0  0  0
   15.5360  -10.9490   16.2960 C   0  0  0  0  0  0  0  0  0  0  0  0
   14.2470   -7.3370   16.6190 R   0  0  1  0  0  0  0  0  0  0  0  0
   15.8150  -10.6320   19.5740 H   0  0  0  0  0  0  0  0  0  0  0  0
   18.0110  -11.6900   17.0790 H   0  0  0  0  0  0  0  0  0  0  0  0
   17.8010  -13.4230   16.7270 H   0  0  0  0  0  0  0  0  0  0  0  0
   18.3130  -12.9000   18.3490 H   0  0  0  0  0  0  0  0  0  0  0  0
  3  4  1  0  0  0  0
  3  7  2  0  0  0  0
  3 11  1  0  0  0  0
  4  5  1  0  0  0  0
  5 14  1  0  0  0  0
  5 15  1  0  0  0  0
  5 16  1  0  0  0  0
  6 11  1  0  0  0  0
  7  8  1  0  0  0  0
  7 13  1  0  0  0  0
  1  8  1  0  0  0  0
  8  9  2  0  0  0  0
  9 10  1  0  0  0  0
  9 12  1  1  0  0  0
  2 10  1  0  0  0  0
 10 11  2  0  0  0  0
M  END
