best_conformers_3fmk.pdb
 OpenBabel01202212053D

 46 49  0  0  1  0  0  0  0  0999 V2000
   22.8070    7.9440   30.7790 N   0  0  0  0  0  0  0  0  0  0  0  0
   21.6320    8.5300   30.7680 C   0  0  0  0  0  0  0  0  0  0  0  0
   22.6290   10.6470   31.1100 C   0  0  0  0  0  0  0  0  0  0  0  0
   21.4350    9.9100   30.9340 C   0  0  0  0  0  0  0  0  0  0  0  0
   20.1680   10.5820   30.9360 C   0  0  0  0  0  0  0  0  0  0  0  0
   20.1430   11.9230   31.1390 C   0  0  0  0  0  0  0  0  0  0  0  0
   21.3970   12.7090   31.3590 C   0  0  0  0  0  0  0  0  0  0  0  0
   22.6040   11.9990   31.3070 N   0  0  0  0  0  0  0  0  0  0  0  0
   23.8420    8.7900   30.9000 C   0  0  0  0  0  0  0  0  0  0  0  0
   23.8230   10.0820   31.0970 N   0  0  0  0  0  0  0  0  0  0  0  0
   25.0240    8.1740   30.7990 N   0  0  0  0  0  0  0  0  0  0  0  0
   21.4100   13.9030   31.5880 O   0  0  0  0  0  0  0  0  0  0  0  0
   19.0240   12.7130   31.1160 O   0  0  0  0  0  0  0  0  0  0  0  0
   17.7780   12.1320   31.0920 C   0  0  0  0  0  0  0  0  0  0  0  0
   16.9800   12.3330   29.9690 C   0  0  0  0  0  0  0  0  0  0  0  0
   15.7030   11.7720   29.9010 C   0  0  0  0  0  0  0  0  0  0  0  0
   15.2330   11.0410   30.9860 C   0  0  0  0  0  0  0  0  0  0  0  0
   15.9920   10.8480   32.1390 C   0  0  0  0  0  0  0  0  0  0  0  0
   17.2700   11.3960   32.1700 C   0  0  0  0  0  0  0  0  0  0  0  0
   23.8420   12.7910   31.4730 C   0  0  0  0  0  0  0  0  0  0  0  0
   18.0470   11.1880   33.2420 F   0  0  0  0  0  0  0  0  0  0  0  0
   14.0050   10.5040   30.9360 F   0  0  0  0  0  0  0  0  0  0  0  0
   20.7660    7.8780   30.6190 H   0  0  0  0  0  0  0  0  0  0  0  0
   19.2430   10.0230   30.7830 H   0  0  0  0  0  0  0  0  0  0  0  0
   24.8430    7.2030   30.9660 H   0  0  0  0  0  0  0  0  0  0  0  0
   17.3940   12.9260   29.1570 H   0  0  0  0  0  0  0  0  0  0  0  0
   15.0780   11.8950   29.0240 H   0  0  0  0  0  0  0  0  0  0  0  0
   15.6070   10.2830   32.9790 H   0  0  0  0  0  0  0  0  0  0  0  0
   24.6880   12.1070   31.4390 H   0  0  0  0  0  0  0  0  0  0  0  0
   23.8280   13.3300   32.4240 H   0  0  0  0  0  0  0  0  0  0  0  0
   23.9330   13.5390   30.6780 H   0  0  0  0  0  0  0  0  0  0  0  0
   26.2700    8.7970   31.1870 C   0  0  2  0  0  0  0  0  0  0  0  0
   27.3820    7.8970   30.6540 C   0  0  0  0  0  0  0  0  0  0  0  0
   26.4220    9.0410   32.6860 C   0  0  0  0  0  0  0  0  0  0  0  0
   28.6710    8.5490   30.7620 N   0  0  0  0  0  0  0  0  0  0  0  0
   28.9670    9.6130   30.0410 N   0  0  0  0  0  0  0  0  0  0  0  0
   30.1420    9.9580   30.5500 C   0  0  0  0  0  0  0  0  0  0  0  0
   30.5200    9.1420   31.5570 N   0  0  0  0  0  0  0  0  0  0  0  0
   29.5660    8.2630   31.6820 N   0  0  0  0  0  0  0  0  0  0  0  0
   26.3120    9.7690   30.6800 H   0  0  0  0  0  0  0  0  0  0  0  0
   27.1980    7.6890   29.6020 H   0  0  0  0  0  0  0  0  0  0  0  0
   27.4030    6.9560   31.2090 H   0  0  0  0  0  0  0  0  0  0  0  0
   25.6020    9.6580   33.0660 H   0  0  0  0  0  0  0  0  0  0  0  0
   27.3640    9.5690   32.8580 H   0  0  0  0  0  0  0  0  0  0  0  0
   26.4550    8.0990   33.2500 H   0  0  0  0  0  0  0  0  0  0  0  0
   30.7280   10.7960   30.1990 H   0  0  0  0  0  0  0  0  0  0  0  0
  1  2  1  0  0  0  0
  1  9  2  0  0  0  0
  2  4  2  0  0  0  0
  2 23  1  0  0  0  0
  3  4  1  0  0  0  0
  3  8  1  0  0  0  0
  3 10  2  0  0  0  0
  4  5  1  0  0  0  0
  5  6  2  0  0  0  0
  5 24  1  0  0  0  0
  6  7  1  0  0  0  0
  6 13  1  0  0  0  0
  7  8  1  0  0  0  0
  7 12  2  0  0  0  0
  8 20  1  0  0  0  0
  9 10  1  0  0  0  0
  9 11  1  0  0  0  0
 11 25  1  0  0  0  0
 11 32  1  0  0  0  0
 13 14  1  0  0  0  0
 14 15  2  0  0  0  0
 14 19  1  0  0  0  0
 15 16  1  0  0  0  0
 15 26  1  0  0  0  0
 16 17  2  0  0  0  0
 16 27  1  0  0  0  0
 17 18  1  0  0  0  0
 17 22  1  0  0  0  0
 18 19  2  0  0  0  0
 18 28  1  0  0  0  0
 19 21  1  0  0  0  0
 20 29  1  0  0  0  0
 20 30  1  0  0  0  0
 20 31  1  0  0  0  0
 32 33  1  0  0  0  0
 32 34  1  0  0  0  0
 32 40  1  6  0  0  0
 33 35  1  0  0  0  0
 33 41  1  0  0  0  0
 33 42  1  0  0  0  0
 34 43  1  0  0  0  0
 34 44  1  0  0  0  0
 34 45  1  0  0  0  0
 35 36  1  0  0  0  0
 35 39  1  0  0  0  0
 36 37  2  0  0  0  0
 37 38  1  0  0  0  0
 37 46  1  0  0  0  0
 38 39  2  0  0  0  0
M  END
$$$$
