best_conformers_2v.pdb
 OpenBabel01202212053D

 35 37  0  0  0  0  0  0  0  0999 V2000
   22.7680    7.9630   30.7680 N   0  0  0  0  0  0  0  0  0  0  0  0
   21.6080    8.5770   30.7560 C   0  0  0  0  0  0  0  0  0  0  0  0
   22.6380   10.6660   31.1060 C   0  0  0  0  0  0  0  0  0  0  0  0
   21.4330    9.9570   30.9260 C   0  0  0  0  0  0  0  0  0  0  0  0
   20.1710   10.6360   30.9320 C   0  0  0  0  0  0  0  0  0  0  0  0
   20.1420   11.9750   31.1310 C   0  0  0  0  0  0  0  0  0  0  0  0
   21.4210   12.7400   31.3080 C   0  0  0  0  0  0  0  0  0  0  0  0
   22.6230   12.0160   31.2860 N   0  0  0  0  0  0  0  0  0  0  0  0
   23.8200    8.7820   30.9470 C   0  0  0  0  0  0  0  0  0  0  0  0
   23.8250   10.0790   31.1210 N   0  0  0  0  0  0  0  0  0  0  0  0
   24.9760    8.1210   30.9440 N   0  0  0  0  0  0  0  0  0  0  0  0
   21.4650   13.9430   31.4820 O   0  0  0  0  0  0  0  0  0  0  0  0
   19.0060   12.7500   31.1440 O   0  0  0  0  0  0  0  0  0  0  0  0
   17.7470   12.1750   31.1020 C   0  0  0  0  0  0  0  0  0  0  0  0
   16.9450   12.3640   29.9750 C   0  0  0  0  0  0  0  0  0  0  0  0
   15.6700   11.7860   29.9010 C   0  0  0  0  0  0  0  0  0  0  0  0
   15.2050   11.0450   30.9810 C   0  0  0  0  0  0  0  0  0  0  0  0
   15.9640   10.8580   32.1340 C   0  0  0  0  0  0  0  0  0  0  0  0
   17.2310   11.4300   32.1750 C   0  0  0  0  0  0  0  0  0  0  0  0
   23.8570   12.8130   31.4760 C   0  0  0  0  0  0  0  0  0  0  0  0
   17.9980   11.2350   33.2550 F   0  0  0  0  0  0  0  0  0  0  0  0
   13.9880   10.4820   30.9230 F   0  0  0  0  0  0  0  0  0  0  0  0
   20.7110    7.9710   30.6090 H   0  0  0  0  0  0  0  0  0  0  0  0
   19.2400   10.0950   30.7830 H   0  0  0  0  0  0  0  0  0  0  0  0
   24.7700    7.1480   30.8130 H   0  0  0  0  0  0  0  0  0  0  0  0
   17.3490   12.9630   29.1620 H   0  0  0  0  0  0  0  0  0  0  0  0
   15.0430   11.9000   29.0230 H   0  0  0  0  0  0  0  0  0  0  0  0
   15.5850   10.2700   32.9630 H   0  0  0  0  0  0  0  0  0  0  0  0
   24.7140   12.1420   31.4470 H   0  0  0  0  0  0  0  0  0  0  0  0
   23.8070   13.3450   32.4310 H   0  0  0  0  0  0  0  0  0  0  0  0
   23.9290   13.5740   30.6930 H   0  0  0  0  0  0  0  0  0  0  0  0
   26.2790    8.7200   31.1140 C   0  0  0  0  0  0  0  0  0  0  0  0
   26.3600    9.2310   32.0850 H   0  0  0  0  0  0  0  0  0  0  0  0
   27.0370    7.9320   31.0640 H   0  0  0  0  0  0  0  0  0  0  0  0
   26.4850    9.4610   30.3260 H   0  0  0  0  0  0  0  0  0  0  0  0
  1  2  1  0  0  0  0
  1  9  2  0  0  0  0
  2  4  2  0  0  0  0
  2 23  1  0  0  0  0
  3  4  1  0  0  0  0
  3  8  1  0  0  0  0
  3 10  2  0  0  0  0
  4  5  1  0  0  0  0
  5  6  2  0  0  0  0
  5 24  1  0  0  0  0
  6  7  1  0  0  0  0
  6 13  1  0  0  0  0
  7  8  1  0  0  0  0
  7 12  2  0  0  0  0
  8 20  1  0  0  0  0
  9 10  1  0  0  0  0
  9 11  1  0  0  0  0
 11 25  1  0  0  0  0
 11 32  1  0  0  0  0
 13 14  1  0  0  0  0
 14 15  2  0  0  0  0
 14 19  1  0  0  0  0
 15 16  1  0  0  0  0
 15 26  1  0  0  0  0
 16 17  2  0  0  0  0
 16 27  1  0  0  0  0
 17 18  1  0  0  0  0
 17 22  1  0  0  0  0
 18 19  2  0  0  0  0
 18 28  1  0  0  0  0
 19 21  1  0  0  0  0
 20 29  1  0  0  0  0
 20 30  1  0  0  0  0
 20 31  1  0  0  0  0
 32 33  1  0  0  0  0
 32 34  1  0  0  0  0
 32 35  1  0  0  0  0
M  END
$$$$
