best_conformers_3fly.pdb
 OpenBabel01202212053D

 41 43  0  0  0  0  0  0  0  0999 V2000
   22.6810    7.9540   30.7560 N   0  0  0  0  0  0  0  0  0  0  0  0
   21.5210    8.5720   30.7480 C   0  0  0  0  0  0  0  0  0  0  0  0
   22.5810   10.6640   31.0910 C   0  0  0  0  0  0  0  0  0  0  0  0
   21.3700    9.9570   30.9180 C   0  0  0  0  0  0  0  0  0  0  0  0
   20.1250   10.6560   30.9310 C   0  0  0  0  0  0  0  0  0  0  0  0
   20.1170   11.9960   31.1340 C   0  0  0  0  0  0  0  0  0  0  0  0
   21.3980   12.7520   31.3120 C   0  0  0  0  0  0  0  0  0  0  0  0
   22.5910   12.0140   31.2820 N   0  0  0  0  0  0  0  0  0  0  0  0
   23.7400    8.7710   30.9060 C   0  0  0  0  0  0  0  0  0  0  0  0
   23.7550   10.0700   31.0870 N   0  0  0  0  0  0  0  0  0  0  0  0
   24.9020    8.1320   30.8460 N   0  0  0  0  0  0  0  0  0  0  0  0
   21.4480   13.9550   31.4930 O   0  0  0  0  0  0  0  0  0  0  0  0
   18.9880   12.7760   31.1470 O   0  0  0  0  0  0  0  0  0  0  0  0
   17.7420   12.1830   31.1060 C   0  0  0  0  0  0  0  0  0  0  0  0
   16.9440   12.3640   29.9780 C   0  0  0  0  0  0  0  0  0  0  0  0
   15.6710   11.7830   29.9030 C   0  0  0  0  0  0  0  0  0  0  0  0
   15.2040   11.0440   30.9810 C   0  0  0  0  0  0  0  0  0  0  0  0
   15.9660   10.8620   32.1300 C   0  0  0  0  0  0  0  0  0  0  0  0
   17.2320   11.4330   32.1750 C   0  0  0  0  0  0  0  0  0  0  0  0
   23.8400   12.7950   31.4700 C   0  0  0  0  0  0  0  0  0  0  0  0
   18.0010   11.2330   33.2530 F   0  0  0  0  0  0  0  0  0  0  0  0
   13.9870   10.4820   30.9230 F   0  0  0  0  0  0  0  0  0  0  0  0
   20.6190    7.9650   30.6030 H   0  0  0  0  0  0  0  0  0  0  0  0
   19.1940   10.1150   30.7830 H   0  0  0  0  0  0  0  0  0  0  0  0
   24.7070    7.1490   30.8310 H   0  0  0  0  0  0  0  0  0  0  0  0
   17.3550   12.9600   29.1660 H   0  0  0  0  0  0  0  0  0  0  0  0
   15.0430   11.8930   29.0280 H   0  0  0  0  0  0  0  0  0  0  0  0
   15.5880   10.2760   32.9550 H   0  0  0  0  0  0  0  0  0  0  0  0
   24.7070   12.1300   31.4420 H   0  0  0  0  0  0  0  0  0  0  0  0
   23.8040   13.3310   32.4250 H   0  0  0  0  0  0  0  0  0  0  0  0
   23.9260   13.5610   30.6920 H   0  0  0  0  0  0  0  0  0  0  0  0
   26.1790    8.7620   31.1330 C   0  0  0  0  0  0  0  0  0  0  0  0
   26.2640    9.1740   32.6040 C   0  0  0  0  0  0  0  0  0  0  0  0
   27.3170    7.8400   30.7210 C   0  0  0  0  0  0  0  0  0  0  0  0
   26.2160    9.6740   30.5200 H   0  0  0  0  0  0  0  0  0  0  0  0
   27.1750    9.7450   32.8070 H   0  0  0  0  0  0  0  0  0  0  0  0
   25.4080    9.7990   32.8720 H   0  0  0  0  0  0  0  0  0  0  0  0
   26.2570    8.2830   33.2400 H   0  0  0  0  0  0  0  0  0  0  0  0
   28.2820    8.3480   30.8400 H   0  0  0  0  0  0  0  0  0  0  0  0
   27.3290    6.9460   31.3550 H   0  0  0  0  0  0  0  0  0  0  0  0
   27.2220    7.5380   29.6740 H   0  0  0  0  0  0  0  0  0  0  0  0
  1  2  1  0  0  0  0
  1  9  2  0  0  0  0
  2  4  2  0  0  0  0
  2 23  1  0  0  0  0
  3  4  1  0  0  0  0
  3  8  1  0  0  0  0
  3 10  2  0  0  0  0
  4  5  1  0  0  0  0
  5  6  2  0  0  0  0
  5 24  1  0  0  0  0
  6  7  1  0  0  0  0
  6 13  1  0  0  0  0
  7  8  1  0  0  0  0
  7 12  2  0  0  0  0
  8 20  1  0  0  0  0
  9 10  1  0  0  0  0
  9 11  1  0  0  0  0
 11 25  1  0  0  0  0
 11 32  1  0  0  0  0
 13 14  1  0  0  0  0
 14 15  2  0  0  0  0
 14 19  1  0  0  0  0
 15 16  1  0  0  0  0
 15 26  1  0  0  0  0
 16 17  2  0  0  0  0
 16 27  1  0  0  0  0
 17 18  1  0  0  0  0
 17 22  1  0  0  0  0
 18 19  2  0  0  0  0
 18 28  1  0  0  0  0
 19 21  1  0  0  0  0
 20 29  1  0  0  0  0
 20 30  1  0  0  0  0
 20 31  1  0  0  0  0
 32 33  1  0  0  0  0
 32 34  1  0  0  0  0
 32 35  1  0  0  0  0
 33 36  1  0  0  0  0
 33 37  1  0  0  0  0
 33 38  1  0  0  0  0
 34 39  1  0  0  0  0
 34 40  1  0  0  0  0
 34 41  1  0  0  0  0
M  END
$$$$
