best_conformers_2y.pdb
 OpenBabel01202212053D

 45 47  0  0  0  0  0  0  0  0999 V2000
   22.7420    7.9570   30.7770 N   0  0  0  0  0  0  0  0  0  0  0  0
   21.5810    8.5590   30.7440 C   0  0  0  0  0  0  0  0  0  0  0  0
   22.6110   10.6580   31.1350 C   0  0  0  0  0  0  0  0  0  0  0  0
   21.4100    9.9430   30.9250 C   0  0  0  0  0  0  0  0  0  0  0  0
   20.1570   10.6300   30.9280 C   0  0  0  0  0  0  0  0  0  0  0  0
   20.1390   11.9700   31.1350 C   0  0  0  0  0  0  0  0  0  0  0  0
   21.4070   12.7410   31.3190 C   0  0  0  0  0  0  0  0  0  0  0  0
   22.6090   12.0130   31.2880 N   0  0  0  0  0  0  0  0  0  0  0  0
   23.7810    8.7750   31.0320 C   0  0  0  0  0  0  0  0  0  0  0  0
   23.7860   10.0670   31.2260 N   0  0  0  0  0  0  0  0  0  0  0  0
   24.9170    8.0920   31.1350 N   0  0  0  0  0  0  0  0  0  0  0  0
   21.4330   13.9450   31.5040 O   0  0  0  0  0  0  0  0  0  0  0  0
   19.0100   12.7530   31.1380 O   0  0  0  0  0  0  0  0  0  0  0  0
   17.7610   12.1650   31.1000 C   0  0  0  0  0  0  0  0  0  0  0  0
   16.9550   12.3560   29.9790 C   0  0  0  0  0  0  0  0  0  0  0  0
   15.6790   11.7860   29.9040 C   0  0  0  0  0  0  0  0  0  0  0  0
   15.2110   11.0470   30.9810 C   0  0  0  0  0  0  0  0  0  0  0  0
   15.9730   10.8640   32.1300 C   0  0  0  0  0  0  0  0  0  0  0  0
   17.2460   11.4250   32.1730 C   0  0  0  0  0  0  0  0  0  0  0  0
   23.8560   12.7920   31.4680 C   0  0  0  0  0  0  0  0  0  0  0  0
   18.0110   11.2250   33.2540 F   0  0  0  0  0  0  0  0  0  0  0  0
   13.9920   10.4860   30.9210 F   0  0  0  0  0  0  0  0  0  0  0  0
   20.7100    7.9170   30.5780 H   0  0  0  0  0  0  0  0  0  0  0  0
   19.2280   10.0830   30.7780 H   0  0  0  0  0  0  0  0  0  0  0  0
   24.6800    7.1630   30.8470 H   0  0  0  0  0  0  0  0  0  0  0  0
   17.3570   12.9540   29.1670 H   0  0  0  0  0  0  0  0  0  0  0  0
   15.0500   11.8930   29.0290 H   0  0  0  0  0  0  0  0  0  0  0  0
   15.5920   10.2800   32.9560 H   0  0  0  0  0  0  0  0  0  0  0  0
   24.7240   12.1290   31.4350 H   0  0  0  0  0  0  0  0  0  0  0  0
   23.8210   13.3170   32.4260 H   0  0  0  0  0  0  0  0  0  0  0  0
   23.9330   13.5470   30.6820 H   0  0  0  0  0  0  0  0  0  0  0  0
   26.2450    8.6720   31.1040 C   0  0  0  0  0  0  0  0  0  0  0  0
   26.9410    7.9280   31.5250 H   0  0  0  0  0  0  0  0  0  0  0  0
   26.2370    9.5410   31.7700 H   0  0  0  0  0  0  0  0  0  0  0  0
   26.8790    9.1740   29.7620 C   0  0  0  0  0  0  0  0  0  0  0  0
   27.0270    8.0500   28.7420 C   0  0  0  0  0  0  0  0  0  0  0  0
   26.0940   10.2300   29.2060 O   0  0  0  0  0  0  0  0  0  0  0  0
   28.2610    9.7460   30.1200 C   0  0  0  0  0  0  0  0  0  0  0  0
   27.7070    7.2840   29.1230 H   0  0  0  0  0  0  0  0  0  0  0  0
   26.0790    7.5760   28.4870 H   0  0  0  0  0  0  0  0  0  0  0  0
   27.4440    8.4670   27.8170 H   0  0  0  0  0  0  0  0  0  0  0  0
   28.8720    9.8890   29.2370 H   0  0  0  0  0  0  0  0  0  0  0  0
   28.1580   10.7190   30.6100 H   0  0  0  0  0  0  0  0  0  0  0  0
   28.8320    9.0690   30.7630 H   0  0  0  0  0  0  0  0  0  0  0  0
   26.4330   10.3930   28.3160 H   0  0  0  0  0  0  0  0  0  0  0  0
  1  2  1  0  0  0  0
  1  9  2  0  0  0  0
  2  4  2  0  0  0  0
  2 23  1  0  0  0  0
  3  4  1  0  0  0  0
  3  8  1  0  0  0  0
  3 10  2  0  0  0  0
  4  5  1  0  0  0  0
  5  6  2  0  0  0  0
  5 24  1  0  0  0  0
  6  7  1  0  0  0  0
  6 13  1  0  0  0  0
  7  8  1  0  0  0  0
  7 12  2  0  0  0  0
  8 20  1  0  0  0  0
  9 10  1  0  0  0  0
  9 11  1  0  0  0  0
 11 25  1  0  0  0  0
 11 32  1  0  0  0  0
 13 14  1  0  0  0  0
 14 15  2  0  0  0  0
 14 19  1  0  0  0  0
 15 16  1  0  0  0  0
 15 26  1  0  0  0  0
 16 17  2  0  0  0  0
 16 27  1  0  0  0  0
 17 18  1  0  0  0  0
 17 22  1  0  0  0  0
 18 19  2  0  0  0  0
 18 28  1  0  0  0  0
 19 21  1  0  0  0  0
 20 29  1  0  0  0  0
 20 30  1  0  0  0  0
 20 31  1  0  0  0  0
 32 33  1  0  0  0  0
 32 34  1  0  0  0  0
 32 35  1  0  0  0  0
 35 36  1  0  0  0  0
 35 37  1  0  0  0  0
 35 38  1  0  0  0  0
 36 39  1  0  0  0  0
 36 40  1  0  0  0  0
 36 41  1  0  0  0  0
 37 45  1  0  0  0  0
 38 42  1  0  0  0  0
 38 43  1  0  0  0  0
 38 44  1  0  0  0  0
M  END
$$$$
