best_conformers_2aa.pdb
 OpenBabel01202212053D

 43 45  0  0  0  0  0  0  0  0999 V2000
   22.6680    7.9520   30.7500 N   0  0  0  0  0  0  0  0  0  0  0  0
   21.5110    8.5740   30.7460 C   0  0  0  0  0  0  0  0  0  0  0  0
   22.5780   10.6610   31.1030 C   0  0  0  0  0  0  0  0  0  0  0  0
   21.3660    9.9580   30.9200 C   0  0  0  0  0  0  0  0  0  0  0  0
   20.1230   10.6600   30.9300 C   0  0  0  0  0  0  0  0  0  0  0  0
   20.1160   11.9990   31.1330 C   0  0  0  0  0  0  0  0  0  0  0  0
   21.3980   12.7530   31.3120 C   0  0  0  0  0  0  0  0  0  0  0  0
   22.5910   12.0130   31.2850 N   0  0  0  0  0  0  0  0  0  0  0  0
   23.7280    8.7660   30.9100 C   0  0  0  0  0  0  0  0  0  0  0  0
   23.7490   10.0600   31.1220 N   0  0  0  0  0  0  0  0  0  0  0  0
   24.8930    8.1180   30.8430 N   0  0  0  0  0  0  0  0  0  0  0  0
   21.4480   13.9570   31.4920 O   0  0  0  0  0  0  0  0  0  0  0  0
   18.9870   12.7790   31.1470 O   0  0  0  0  0  0  0  0  0  0  0  0
   17.7400   12.1840   31.1060 C   0  0  0  0  0  0  0  0  0  0  0  0
   16.9430   12.3640   29.9780 C   0  0  0  0  0  0  0  0  0  0  0  0
   15.6710   11.7830   29.9030 C   0  0  0  0  0  0  0  0  0  0  0  0
   15.2040   11.0440   30.9810 C   0  0  0  0  0  0  0  0  0  0  0  0
   15.9660   10.8620   32.1290 C   0  0  0  0  0  0  0  0  0  0  0  0
   17.2320   11.4340   32.1750 C   0  0  0  0  0  0  0  0  0  0  0  0
   23.8410   12.7920   31.4720 C   0  0  0  0  0  0  0  0  0  0  0  0
   18.0000   11.2340   33.2530 F   0  0  0  0  0  0  0  0  0  0  0  0
   13.9870   10.4820   30.9220 F   0  0  0  0  0  0  0  0  0  0  0  0
   20.6050    7.9730   30.6020 H   0  0  0  0  0  0  0  0  0  0  0  0
   19.1930   10.1180   30.7820 H   0  0  0  0  0  0  0  0  0  0  0  0
   24.6670    7.1370   30.8140 H   0  0  0  0  0  0  0  0  0  0  0  0
   17.3540   12.9600   29.1660 H   0  0  0  0  0  0  0  0  0  0  0  0
   15.0430   11.8940   29.0280 H   0  0  0  0  0  0  0  0  0  0  0  0
   15.5880   10.2770   32.9540 H   0  0  0  0  0  0  0  0  0  0  0  0
   24.7070   12.1270   31.4460 H   0  0  0  0  0  0  0  0  0  0  0  0
   23.8050   13.3310   32.4250 H   0  0  0  0  0  0  0  0  0  0  0  0
   23.9280   13.5580   30.6930 H   0  0  0  0  0  0  0  0  0  0  0  0
   25.4650    9.4900   33.0050 H   0  0  0  0  0  0  0  0  0  0  0  0
   26.2000    8.7460   31.1350 C   0  0  0  0  0  0  0  0  0  0  0  0
   26.3780    8.9830   32.6540 C   0  0  0  0  0  0  0  0  0  0  0  0
   27.3390    7.9360   30.4980 C   0  0  0  0  0  0  0  0  0  0  0  0
   26.2140    9.7360   30.6610 H   0  0  0  0  0  0  0  0  0  0  0  0
   27.5240    9.7710   32.9140 O   0  0  0  0  0  0  0  0  0  0  0  0
   26.4290    7.9910   33.1330 H   0  0  0  0  0  0  0  0  0  0  0  0
   28.5460    8.6700   30.5780 O   0  0  0  0  0  0  0  0  0  0  0  0
   27.3900    6.9650   31.0230 H   0  0  0  0  0  0  0  0  0  0  0  0
   27.0630    7.7450   29.4480 H   0  0  0  0  0  0  0  0  0  0  0  0
   27.6640    9.8260   33.8650 H   0  0  0  0  0  0  0  0  0  0  0  0
   29.2900    8.1110   30.3340 H   0  0  0  0  0  0  0  0  0  0  0  0
  1  2  1  0  0  0  0
  1  9  2  0  0  0  0
  2  4  2  0  0  0  0
  2 23  1  0  0  0  0
  3  4  1  0  0  0  0
  3  8  1  0  0  0  0
  3 10  2  0  0  0  0
  4  5  1  0  0  0  0
  5  6  2  0  0  0  0
  5 24  1  0  0  0  0
  6  7  1  0  0  0  0
  6 13  1  0  0  0  0
  7  8  1  0  0  0  0
  7 12  2  0  0  0  0
  8 20  1  0  0  0  0
  9 10  1  0  0  0  0
  9 11  1  0  0  0  0
 11 25  1  0  0  0  0
 11 33  1  0  0  0  0
 13 14  1  0  0  0  0
 14 15  2  0  0  0  0
 14 19  1  0  0  0  0
 15 16  1  0  0  0  0
 15 26  1  0  0  0  0
 16 17  2  0  0  0  0
 16 27  1  0  0  0  0
 17 18  1  0  0  0  0
 17 22  1  0  0  0  0
 18 19  2  0  0  0  0
 18 28  1  0  0  0  0
 19 21  1  0  0  0  0
 20 29  1  0  0  0  0
 20 30  1  0  0  0  0
 20 31  1  0  0  0  0
 32 34  1  0  0  0  0
 33 34  1  0  0  0  0
 33 35  1  0  0  0  0
 33 36  1  0  0  0  0
 34 37  1  0  0  0  0
 34 38  1  0  0  0  0
 35 39  1  0  0  0  0
 35 40  1  0  0  0  0
 35 41  1  0  0  0  0
 37 42  1  0  0  0  0
 39 43  1  0  0  0  0
M  END
$$$$
