best_conformers_3flq.pdb
 OpenBabel01202212053D

 47 49  0  0  1  0  0  0  0  0999 V2000
   23.2780    9.2350   30.6610 N   0  0  0  0  0  0  0  0  0  0  0  0
   22.0130    9.5950   30.3460 C   0  0  0  0  0  0  0  0  0  0  0  0
   22.5190   11.8230   30.9640 C   0  0  0  0  0  0  0  0  0  0  0  0
   21.5610   10.8830   30.5250 C   0  0  0  0  0  0  0  0  0  0  0  0
   20.1900   11.3080   30.3540 C   0  0  0  0  0  0  0  0  0  0  0  0
   19.8470   12.5670   30.7060 C   0  0  0  0  0  0  0  0  0  0  0  0
   20.8660   13.5500   31.1850 C   0  0  0  0  0  0  0  0  0  0  0  0
   22.2070   13.1340   31.1500 N   0  0  0  0  0  0  0  0  0  0  0  0
   24.0520   10.1780   31.0770 C   0  0  0  0  0  0  0  0  0  0  0  0
   23.7740   11.4420   31.2500 N   0  0  0  0  0  0  0  0  0  0  0  0
   25.4810    9.7770   31.7790 N   0  0  0  0  0  0  0  0  0  0  0  0
   20.5850   14.6640   31.5840 O   0  0  0  0  0  0  0  0  0  0  0  0
   18.5800   13.0750   30.5900 O   0  0  0  0  0  0  0  0  0  0  0  0
   17.5090   12.2320   30.8000 C   0  0  0  0  0  0  0  0  0  0  0  0
   16.5500   12.1300   29.7960 C   0  0  0  0  0  0  0  0  0  0  0  0
   15.4100   11.3390   29.9710 C   0  0  0  0  0  0  0  0  0  0  0  0
   15.2450   10.6710   31.1790 C   0  0  0  0  0  0  0  0  0  0  0  0
   16.1800   10.7500   32.2080 C   0  0  0  0  0  0  0  0  0  0  0  0
   17.3100   11.5350   32.0010 C   0  0  0  0  0  0  0  0  0  0  0  0
   23.2330   14.1700   31.4330 C   0  0  0  0  0  0  0  0  0  0  0  0
   18.2350   11.6280   32.9680 F   0  0  0  0  0  0  0  0  0  0  0  0
   14.1480    9.9250   31.3730 F   0  0  0  0  0  0  0  0  0  0  0  0
   21.3430    8.8190   29.9730 H   0  0  0  0  0  0  0  0  0  0  0  0
   19.4330   10.6170   29.9800 H   0  0  0  0  0  0  0  0  0  0  0  0
   25.4720   10.8740   31.6880 H   0  0  0  0  0  0  0  0  0  0  0  0
   16.7220   12.6930   28.8830 H   0  0  0  0  0  0  0  0  0  0  0  0
   14.6590   11.2360   29.1950 H   0  0  0  0  0  0  0  0  0  0  0  0
   16.0320   10.2130   33.1380 H   0  0  0  0  0  0  0  0  0  0  0  0
   24.2210   13.7250   31.3120 H   0  0  0  0  0  0  0  0  0  0  0  0
   23.1190   14.5550   32.4510 H   0  0  0  0  0  0  0  0  0  0  0  0
   23.1120   15.0100   30.7450 H   0  0  0  0  0  0  0  0  0  0  0  0
   25.4620    9.7050   31.8490 C   0  0  2  0  0  0  0  0  0  0  0  0
   24.4060    7.0140   32.3590 C   0  0  0  0  0  0  0  0  0  0  0  0
   26.7800    9.5350   31.0100 C   0  0  0  0  0  0  0  0  0  0  0  0
   24.9620    7.1940   31.4060 H   0  0  0  0  0  0  0  0  0  0  0  0
   24.7690    7.5480   33.2460 H   0  0  0  0  0  0  0  0  0  0  0  0
   23.3380    7.2540   32.2310 H   0  0  0  0  0  0  0  0  0  0  0  0
   24.4620    5.9450   32.6410 H   0  0  0  0  0  0  0  0  0  0  0  0
   27.4120   10.4290   30.8560 H   0  0  0  0  0  0  0  0  0  0  0  0
   26.7090    8.9550   30.0740 H   0  0  0  0  0  0  0  0  0  0  0  0
   27.8750    8.6320   32.0450 S   0  0  0  0  0  0  0  0  0  0  0  0
   27.5780    8.9830   33.4260 O   0  0  0  0  0  0  0  0  0  0  0  0
   27.6330    6.8970   31.8830 C   0  0  0  0  0  0  0  0  0  0  0  0
   29.1930    8.8360   31.4600 O   0  0  0  0  0  0  0  0  0  0  0  0
   26.7310    6.5820   32.3990 H   0  0  0  0  0  0  0  0  0  0  0  0
   27.6460    6.6370   30.8250 H   0  0  0  0  0  0  0  0  0  0  0  0
   28.5160    6.5120   32.3880 H   0  0  0  0  0  0  0  0  0  0  0  0
  1  2  1  0  0  0  0
  1  9  2  0  0  0  0
  2  4  2  0  0  0  0
  2 23  1  0  0  0  0
  3  4  1  0  0  0  0
  3  8  1  0  0  0  0
  3 10  2  0  0  0  0
  4  5  1  0  0  0  0
  5  6  2  0  0  0  0
  5 24  1  0  0  0  0
  6  7  1  0  0  0  0
  6 13  1  0  0  0  0
  7  8  1  0  0  0  0
  7 12  2  0  0  0  0
  8 20  1  0  0  0  0
  9 10  1  0  0  0  0
  9 11  1  0  0  0  0
 11 25  1  0  0  0  0
 11 32  1  0  0  0  0
 13 14  1  0  0  0  0
 14 15  2  0  0  0  0
 14 19  1  0  0  0  0
 15 16  1  0  0  0  0
 15 26  1  0  0  0  0
 16 17  2  0  0  0  0
 16 27  1  0  0  0  0
 17 18  1  0  0  0  0
 17 22  1  0  0  0  0
 18 19  2  0  0  0  0
 18 28  1  0  0  0  0
 19 21  1  0  0  0  0
 20 29  1  0  0  0  0
 20 30  1  0  0  0  0
 20 31  1  0  0  0  0
 32 33  1  0  0  0  0
 32 34  1  0  0  0  0
 32 35  1  6  0  0  0
 33 36  1  0  0  0  0
 33 37  1  0  0  0  0
 33 38  1  0  0  0  0
 34 39  1  0  0  0  0
 34 40  1  0  0  0  0
 34 41  1  0  0  0  0
 41 42  2  0  0  0  0
 41 43  1  0  0  0  0
 41 44  2  0  0  0  0
 43 45  1  0  0  0  0
 43 46  1  0  0  0  0
 43 47  1  0  0  0  0
M  END
$$$$
