best_conformers_3fln.pdb
 OpenBabel01202212053D

 46 49  0  0  0  0  0  0  0  0999 V2000
   22.6410    7.9440   30.7650 N   0  0  0  0  0  0  0  0  0  0  0  0
   21.4940    8.5780   30.7520 C   0  0  0  0  0  0  0  0  0  0  0  0
   22.5740   10.6610   31.1100 C   0  0  0  0  0  0  0  0  0  0  0  0
   21.3600    9.9630   30.9220 C   0  0  0  0  0  0  0  0  0  0  0  0
   20.1190   10.6620   30.9290 C   0  0  0  0  0  0  0  0  0  0  0  0
   20.1150   12.0010   31.1330 C   0  0  0  0  0  0  0  0  0  0  0  0
   21.3980   12.7550   31.3120 C   0  0  0  0  0  0  0  0  0  0  0  0
   22.5910   12.0150   31.2860 N   0  0  0  0  0  0  0  0  0  0  0  0
   23.7010    8.7530   30.9280 C   0  0  0  0  0  0  0  0  0  0  0  0
   23.7370   10.0490   31.1380 N   0  0  0  0  0  0  0  0  0  0  0  0
   24.8540    8.1070   30.8460 N   0  0  0  0  0  0  0  0  0  0  0  0
   21.4500   13.9590   31.4910 O   0  0  0  0  0  0  0  0  0  0  0  0
   18.9860   12.7810   31.1460 O   0  0  0  0  0  0  0  0  0  0  0  0
   17.7400   12.1840   31.1060 C   0  0  0  0  0  0  0  0  0  0  0  0
   16.9430   12.3640   29.9770 C   0  0  0  0  0  0  0  0  0  0  0  0
   15.6710   11.7840   29.9020 C   0  0  0  0  0  0  0  0  0  0  0  0
   15.2050   11.0440   30.9810 C   0  0  0  0  0  0  0  0  0  0  0  0
   15.9650   10.8610   32.1310 C   0  0  0  0  0  0  0  0  0  0  0  0
   17.2320   11.4340   32.1750 C   0  0  0  0  0  0  0  0  0  0  0  0
   23.8400   12.7970   31.4730 C   0  0  0  0  0  0  0  0  0  0  0  0
   17.9990   11.2340   33.2540 F   0  0  0  0  0  0  0  0  0  0  0  0
   13.9870   10.4820   30.9220 F   0  0  0  0  0  0  0  0  0  0  0  0
   20.5910    7.9780   30.6010 H   0  0  0  0  0  0  0  0  0  0  0  0
   19.1900   10.1170   30.7810 H   0  0  0  0  0  0  0  0  0  0  0  0
   24.6880    7.1220   30.8230 H   0  0  0  0  0  0  0  0  0  0  0  0
   17.3530   12.9610   29.1660 H   0  0  0  0  0  0  0  0  0  0  0  0
   15.0420   11.8950   29.0260 H   0  0  0  0  0  0  0  0  0  0  0  0
   15.5880   10.2750   32.9570 H   0  0  0  0  0  0  0  0  0  0  0  0
   24.7050   12.1340   31.4480 H   0  0  0  0  0  0  0  0  0  0  0  0
   23.8030   13.3350   32.4260 H   0  0  0  0  0  0  0  0  0  0  0  0
   23.9250   13.5620   30.6930 H   0  0  0  0  0  0  0  0  0  0  0  0
   28.3070    9.9940   30.2080 H   0  0  0  0  0  0  0  0  0  0  0  0
   28.4830    8.9440   30.5120 C   0  0  0  0  0  0  0  0  0  0  0  0
   27.2190    8.1280   30.2270 C   0  0  0  0  0  0  0  0  0  0  0  0
   26.1210    8.7260   31.0980 C   0  0  0  0  0  0  0  0  0  0  0  0
   26.4950    8.6870   32.5840 C   0  0  0  0  0  0  0  0  0  0  0  0
   27.8280    9.4160   32.7470 C   0  0  0  0  0  0  0  0  0  0  0  0
   28.8170    8.8780   31.8870 O   0  0  0  0  0  0  0  0  0  0  0  0
   29.3640    8.5990   29.9790 H   0  0  0  0  0  0  0  0  0  0  0  0
   27.3520    7.0700   30.4980 H   0  0  0  0  0  0  0  0  0  0  0  0
   26.9180    8.1880   29.1740 H   0  0  0  0  0  0  0  0  0  0  0  0
   26.0330    9.7890   30.8110 H   0  0  0  0  0  0  0  0  0  0  0  0
   25.6980    9.1620   33.1720 H   0  0  0  0  0  0  0  0  0  0  0  0
   26.5990    7.6390   32.9000 H   0  0  0  0  0  0  0  0  0  0  0  0
   27.6860   10.4910   32.5300 H   0  0  0  0  0  0  0  0  0  0  0  0
   28.2280    9.3110   33.7600 H   0  0  0  0  0  0  0  0  0  0  0  0
  1  2  1  0  0  0  0
  1  9  2  0  0  0  0
  2  4  2  0  0  0  0
  2 23  1  0  0  0  0
  3  4  1  0  0  0  0
  3  8  1  0  0  0  0
  3 10  2  0  0  0  0
  4  5  1  0  0  0  0
  5  6  2  0  0  0  0
  5 24  1  0  0  0  0
  6  7  1  0  0  0  0
  6 13  1  0  0  0  0
  7  8  1  0  0  0  0
  7 12  2  0  0  0  0
  8 20  1  0  0  0  0
  9 10  1  0  0  0  0
  9 11  1  0  0  0  0
 11 25  1  0  0  0  0
 11 35  1  0  0  0  0
 13 14  1  0  0  0  0
 14 15  2  0  0  0  0
 14 19  1  0  0  0  0
 15 16  1  0  0  0  0
 15 26  1  0  0  0  0
 16 17  2  0  0  0  0
 16 27  1  0  0  0  0
 17 18  1  0  0  0  0
 17 22  1  0  0  0  0
 18 19  2  0  0  0  0
 18 28  1  0  0  0  0
 19 21  1  0  0  0  0
 20 29  1  0  0  0  0
 20 30  1  0  0  0  0
 20 31  1  0  0  0  0
 32 33  1  0  0  0  0
 33 34  1  0  0  0  0
 33 38  1  0  0  0  0
 33 39  1  0  0  0  0
 34 35  1  0  0  0  0
 34 40  1  0  0  0  0
 34 41  1  0  0  0  0
 35 36  1  0  0  0  0
 35 42  1  0  0  0  0
 36 37  1  0  0  0  0
 36 43  1  0  0  0  0
 36 44  1  0  0  0  0
 37 38  1  0  0  0  0
 37 45  1  0  0  0  0
 37 46  1  0  0  0  0
M  END
$$$$
