best_conformers_3flw.pdb
 OpenBabel01202212053D

 49 51  0  0  0  0  0  0  0  0999 V2000
   22.8210    8.0140   30.7610 N   0  0  0  0  0  0  0  0  0  0  0  0
   21.6390    8.5780   30.7660 C   0  0  0  0  0  0  0  0  0  0  0  0
   22.6140   10.7090   31.0830 C   0  0  0  0  0  0  0  0  0  0  0  0
   21.4250    9.9570   30.9300 C   0  0  0  0  0  0  0  0  0  0  0  0
   20.1510   10.6130   30.9420 C   0  0  0  0  0  0  0  0  0  0  0  0
   20.1180   11.9540   31.1410 C   0  0  0  0  0  0  0  0  0  0  0  0
   21.3720   12.7520   31.3600 C   0  0  0  0  0  0  0  0  0  0  0  0
   22.5820   12.0600   31.2930 N   0  0  0  0  0  0  0  0  0  0  0  0
   23.8520    8.8690   30.8810 C   0  0  0  0  0  0  0  0  0  0  0  0
   23.8140   10.1650   31.0430 N   0  0  0  0  0  0  0  0  0  0  0  0
   25.0270    8.2570   30.7980 N   0  0  0  0  0  0  0  0  0  0  0  0
   21.3530   13.9420   31.6070 O   0  0  0  0  0  0  0  0  0  0  0  0
   18.9920   12.7360   31.1190 O   0  0  0  0  0  0  0  0  0  0  0  0
   17.7500   12.1420   31.0930 C   0  0  0  0  0  0  0  0  0  0  0  0
   16.9530   12.3330   29.9690 C   0  0  0  0  0  0  0  0  0  0  0  0
   15.6760   11.7680   29.8990 C   0  0  0  0  0  0  0  0  0  0  0  0
   15.2120   11.0350   30.9840 C   0  0  0  0  0  0  0  0  0  0  0  0
   15.9730   10.8450   32.1360 C   0  0  0  0  0  0  0  0  0  0  0  0
   17.2490   11.3980   32.1690 C   0  0  0  0  0  0  0  0  0  0  0  0
   23.8520   12.8560   31.4570 C   0  0  0  0  0  0  0  0  0  0  0  0
   18.0260   11.1980   33.2410 F   0  0  0  0  0  0  0  0  0  0  0  0
   13.9870   10.4910   30.9310 F   0  0  0  0  0  0  0  0  0  0  0  0
   20.7870    7.9050   30.6280 H   0  0  0  0  0  0  0  0  0  0  0  0
   19.2390   10.0310   30.7920 H   0  0  0  0  0  0  0  0  0  0  0  0
   24.8260    7.2900   30.9610 H   0  0  0  0  0  0  0  0  0  0  0  0
   17.3670   12.9300   29.1600 H   0  0  0  0  0  0  0  0  0  0  0  0
   15.0520   11.8880   29.0200 H   0  0  0  0  0  0  0  0  0  0  0  0
   15.5890   10.2750   32.9740 H   0  0  0  0  0  0  0  0  0  0  0  0
   24.6870   12.1560   31.4820 H   0  0  0  0  0  0  0  0  0  0  0  0
   23.8250   13.0810   32.5430 H   0  0  0  0  0  0  0  0  0  0  0  0
   24.0320   13.2000   30.4190 H   0  0  0  0  0  0  0  0  0  0  0  0
   26.2970    8.8520   31.1320 C   0  0  0  0  0  0  0  0  0  0  0  0
   27.4540    7.8450   30.6480 C   0  0  0  0  0  0  0  0  0  0  0  0
   26.4980    9.3150   32.5830 C   0  0  0  0  0  0  0  0  0  0  0  0
   26.4150    9.7380   30.4980 H   0  0  0  0  0  0  0  0  0  0  0  0
   28.3230    8.5090   30.4400 H   0  0  0  0  0  0  0  0  0  0  0  0
   27.8650    6.8410   31.5280 C   0  0  0  0  0  0  0  0  0  0  0  0
   27.0960    7.4320   29.6840 H   0  0  0  0  0  0  0  0  0  0  0  0
   25.9900   10.2730   32.7180 H   0  0  0  0  0  0  0  0  0  0  0  0
   27.5740    9.4870   32.6950 H   0  0  0  0  0  0  0  0  0  0  0  0
   26.0500    8.3600   33.6760 C   0  0  0  0  0  0  0  0  0  0  0  0
   26.2990    7.3240   33.4000 H   0  0  0  0  0  0  0  0  0  0  0  0
   26.6110    8.6000   34.5940 H   0  0  0  0  0  0  0  0  0  0  0  0
   24.6600    8.5240   33.8680 O   0  0  0  0  0  0  0  0  0  0  0  0
   28.7250    7.1590   32.5240 O   0  0  0  0  0  0  0  0  0  0  0  0
   27.5000    5.8190   31.5640 H   0  0  0  0  0  0  0  0  0  0  0  0
   23.9840   14.5510   31.5620 H   0  0  0  0  0  0  0  0  0  0  0  0
   29.0890    6.3440   32.9140 H   0  0  0  0  0  0  0  0  0  0  0  0
   24.3610    7.8760   34.5150 H   0  0  0  0  0  0  0  0  0  0  0  0
  1  2  1  0  0  0  0
  1  9  2  0  0  0  0
  2  4  2  0  0  0  0
  2 23  1  0  0  0  0
  3  4  1  0  0  0  0
  3  8  1  0  0  0  0
  3 10  2  0  0  0  0
  4  5  1  0  0  0  0
  5  6  2  0  0  0  0
  5 24  1  0  0  0  0
  6  7  1  0  0  0  0
  6 13  1  0  0  0  0
  7  8  1  0  0  0  0
  7 12  2  0  0  0  0
  8 20  1  0  0  0  0
  9 10  1  0  0  0  0
  9 11  1  0  0  0  0
 11 25  1  0  0  0  0
 11 32  1  0  0  0  0
 13 14  1  0  0  0  0
 14 15  2  0  0  0  0
 14 19  1  0  0  0  0
 15 16  1  0  0  0  0
 15 26  1  0  0  0  0
 16 17  2  0  0  0  0
 16 27  1  0  0  0  0
 17 18  1  0  0  0  0
 17 22  1  0  0  0  0
 18 19  2  0  0  0  0
 18 28  1  0  0  0  0
 19 21  1  0  0  0  0
 20 29  1  0  0  0  0
 20 30  1  0  0  0  0
 20 31  1  0  0  0  0
 32 33  1  0  0  0  0
 32 34  1  0  0  0  0
 32 35  1  0  0  0  0
 33 36  1  0  0  0  0
 33 37  1  0  0  0  0
 33 38  1  0  0  0  0
 34 39  1  0  0  0  0
 34 40  1  0  0  0  0
 34 41  1  0  0  0  0
 37 45  1  0  0  0  0
 37 46  1  0  0  0  0
 37 47  1  0  0  0  0
 41 42  1  0  0  0  0
 41 43  1  0  0  0  0
 41 44  1  0  0  0  0
 44 49  1  0  0  0  0
 45 48  1  0  0  0  0
M  END
$$$$
