3fly
  PyMOL2.3          3D                             0

 22 24  0  0  0  0  0  0  0  0999 V2000
   22.6730    7.9800   30.7570 N   0  0  0  0  0  0  0  0  0  0  0  0
   21.4840    8.6100   30.7530 C   0  0  0  0  0  0  0  0  0  0  0  0
   22.6150   10.6970   31.1110 C   0  0  0  0  0  0  0  0  0  0  0  0
   21.4240    9.9940   30.9320 C   0  0  0  0  0  0  0  0  0  0  0  0
   20.2010   10.6750   30.9330 C   0  0  0  0  0  0  0  0  0  0  0  0
   20.1580   12.0640   31.1160 C   0  0  0  0  0  0  0  0  0  0  0  0
   21.3440   12.7710   31.2940 C   0  0  0  0  0  0  0  0  0  0  0  0
   22.5910   12.0970   31.2930 N   0  0  0  0  0  0  0  0  0  0  0  0
   23.8260    8.6810   30.9320 C   0  0  0  0  0  0  0  0  0  0  0  0
   23.7910   10.0250   31.1070 N   0  0  0  0  0  0  0  0  0  0  0  0
   25.0300    8.0470   30.9370 N   0  0  0  0  0  0  0  0  0  0  0  0
   21.2960   14.0100   31.4530 O   0  0  0  0  0  0  0  0  0  0  0  0
   18.9730   12.7710   31.1290 O   0  0  0  0  0  0  0  0  0  0  0  0
   17.7280   12.1830   31.1120 C   0  0  0  0  0  0  0  0  0  0  0  0
   16.9350   12.3640   29.9810 C   0  0  0  0  0  0  0  0  0  0  0  0
   15.6700   11.7880   29.9070 C   0  0  0  0  0  0  0  0  0  0  0  0
   15.1850   11.0390   30.9770 C   0  0  0  0  0  0  0  0  0  0  0  0
   15.9680   10.8600   32.1180 C   0  0  0  0  0  0  0  0  0  0  0  0
   17.2420   11.4320   32.1840 C   0  0  0  0  0  0  0  0  0  0  0  0
   23.8460   12.8450   31.4810 C   0  0  0  0  0  0  0  0  0  0  0  0
   17.9830   11.2440   33.2920 F   0  0  0  0  0  0  0  0  0  0  0  0
   13.9620   10.4860   30.8930 F   0  0  0  0  0  0  0  0  0  0  0  0
  1  9  4  0  0  0  0
  1  2  4  0  0  0  0
  2  4  4  0  0  0  0
  3  4  4  0  0  0  0
  3  8  4  0  0  0  0
  3 10  4  0  0  0  0
  4  5  4  0  0  0  0
  5  6  4  0  0  0  0
  6  7  4  0  0  0  0
  6 13  1  0  0  0  0
  7  8  4  0  0  0  0
  7 12  2  0  0  0  0
  8 20  1  0  0  0  0
  9 10  4  0  0  0  0
  9 11  1  0  0  0  0
 13 14  1  0  0  0  0
 14 15  4  0  0  0  0
 14 19  4  0  0  0  0
 15 16  4  0  0  0  0
 16 17  4  0  0  0  0
 17 18  4  0  0  0  0
 17 22  1  0  0  0  0
 18 19  4  0  0  0  0
 19 21  1  0  0  0  0
M  END
$$$$
