lig_46
  PyMOL2.3          3D                             0

 19 20  0  0  0  0  0  0  0  0999 V2000
   -1.7400  -46.2700    7.3100 R   0  0  0  0  0  0  0  0  0  0  0  0
   -2.8300  -46.2900    8.1400 C   0  0  0  0  0  0  0  0  0  0  0  0
   -2.7700  -46.9300    9.3600 C   0  0  0  0  0  0  0  0  0  0  0  0
   -1.8600  -47.4200    9.6800 H   0  0  0  0  0  0  0  0  0  0  0  0
   -3.9100  -46.9300   10.1700 C   0  0  0  0  0  0  0  0  0  0  0  0
   -5.0900  -46.3100    9.7700 C   0  0  0  0  0  0  0  0  0  0  0  0
   -5.1300  -45.6700    8.5400 C   0  0  0  0  0  0  0  0  0  0  0  0
   -6.0400  -45.1800    8.2100 H   0  0  0  0  0  0  0  0  0  0  0  0
   -3.9900  -45.6600    7.7200 C   0  0  0  0  0  0  0  0  0  0  0  0
   -4.0200  -45.1500    6.7700 H   0  0  0  0  0  0  0  0  0  0  0  0
   -4.1000  -47.6300   11.4300 C   0  0  0  0  0  0  0  0  0  0  0  0
   -3.4400  -47.2400   12.2000 H   0  0  0  0  0  0  0  0  0  0  0  0
   -3.9100  -48.7000   11.3100 H   0  0  0  0  0  0  0  0  0  0  0  0
   -6.0700  -46.3400   10.8000 C   0  0  0  0  0  0  0  0  0  0  0  0
   -7.0400  -46.6300   10.4000 H   0  0  0  0  0  0  0  0  0  0  0  0
   -6.1500  -45.3600   11.2800 H   0  0  0  0  0  0  0  0  0  0  0  0
   -5.5600  -47.3800   11.7900 C   0  0  0  0  0  0  0  0  0  0  0  0
   -5.6400  -47.0100   12.8100 H   0  0  0  0  0  0  0  0  0  0  0  0
   -6.1400  -48.3000   11.6900 H   0  0  0  0  0  0  0  0  0  0  0  0
  1  2  1  0  0  0  0
  2  3  1  0  0  0  0
  2  9  2  0  0  0  0
  3  4  1  0  0  0  0
  3  5  2  0  0  0  0
  5  6  1  0  0  0  0
  5 11  1  0  0  0  0
  6  7  2  0  0  0  0
  6 14  1  0  0  0  0
  7  8  1  0  0  0  0
  7  9  1  0  0  0  0
  9 10  1  0  0  0  0
 11 12  1  0  0  0  0
 11 13  1  0  0  0  0
 11 17  1  0  0  0  0
 14 15  1  0  0  0  0
 14 16  1  0  0  0  0
 14 17  1  0  0  0  0
 17 18  1  0  0  0  0
 17 19  1  0  0  0  0
M  END
