lig_28
 OpenBabel12152122293D

 18 18  0  0  0  0  0  0  0  0999 V2000
   26.9500   15.3200    9.1900 *   0  0  0  0  0  0  0  0  0  0  0  0
   28.9300   18.1300   11.5700 C   0  0  0  0  0  0  0  0  0  0  0  0
   29.4700   19.0500   11.8400 H   0  0  0  0  0  0  0  0  0  0  0  0
   28.8200   17.5400   12.4800 H   0  0  0  0  0  0  0  0  0  0  0  0
   29.7500   17.3400   10.5500 C   0  0  0  0  0  0  0  0  0  0  0  0
   30.7000   17.0500   10.9900 H   0  0  0  0  0  0  0  0  0  0  0  0
   29.9800   17.9900    9.6900 H   0  0  0  0  0  0  0  0  0  0  0  0
   29.0000   16.1100   10.0600 C   0  0  0  0  0  0  0  0  0  0  0  0
   28.8900   15.4000   10.8900 H   0  0  0  0  0  0  0  0  0  0  0  0
   29.5800   15.6000    9.2800 H   0  0  0  0  0  0  0  0  0  0  0  0
   27.6100   16.4600    9.5300 C   0  0  0  0  0  0  0  0  0  0  0  0
   27.7200   17.0500    8.6100 H   0  0  0  0  0  0  0  0  0  0  0  0
   26.8000   17.2500   10.5400 C   0  0  0  0  0  0  0  0  0  0  0  0
   26.5700   16.6100   11.4000 H   0  0  0  0  0  0  0  0  0  0  0  0
   25.8400   17.5500   10.1000 H   0  0  0  0  0  0  0  0  0  0  0  0
   27.5500   18.4900   11.0300 C   0  0  0  0  0  0  0  0  0  0  0  0
   26.9700   18.9900   11.8100 H   0  0  0  0  0  0  0  0  0  0  0  0
   27.6500   19.2000   10.2000 H   0  0  0  0  0  0  0  0  0  0  0  0
  1 11  1  0  0  0  0
  2  3  1  0  0  0  0
  2  4  1  0  0  0  0
  2  5  1  0  0  0  0
  2 16  1  0  0  0  0
  5  6  1  0  0  0  0
  5  7  1  0  0  0  0
  5  8  1  0  0  0  0
  8  9  1  0  0  0  0
  8 10  1  0  0  0  0
  8 11  1  0  0  0  0
 11 12  1  0  0  0  0
 11 13  1  0  0  0  0
 13 14  1  0  0  0  0
 13 15  1  0  0  0  0
 13 16  1  0  0  0  0
 16 17  1  0  0  0  0
 16 18  1  0  0  0  0
A    1
R
M  END
