lig_ejm_43
  PyMOL2.6          3D                             0

 11 10  0  0  0  0  0  0  0  0999 V2000
   -6.9580   30.8034  -30.2201 H   0  0  0  0  0  0  0  0  0  0  0  0
   -5.7100   29.4500  -31.2300 R   0  0  0  0  0  0  0  0  0  0  0  0
   -6.2300   30.8500  -31.0300 C   0  0  0  0  0  0  0  0  0  0  0  0
   -6.9600   31.4000  -32.2200 C   0  0  0  0  0  0  0  0  0  0  0  0
   -5.0900   31.7500  -30.6800 C   0  0  0  0  0  0  0  0  0  0  0  0
   -5.4600   32.7700  -30.5400 H   0  0  0  0  0  0  0  0  0  0  0  0
   -4.6100   31.4100  -29.7700 H   0  0  0  0  0  0  0  0  0  0  0  0
   -4.3600   31.7500  -31.4900 H   0  0  0  0  0  0  0  0  0  0  0  0
   -7.3100   32.4100  -32.0000 H   0  0  0  0  0  0  0  0  0  0  0  0
   -6.3000   31.4200  -33.0800 H   0  0  0  0  0  0  0  0  0  0  0  0
   -7.8200   30.7700  -32.4400 H   0  0  0  0  0  0  0  0  0  0  0  0
  2  3  1  0  0  0  0
  1  3  1  0  0  0  0
  3  4  1  0  0  0  0
  3  5  1  0  0  0  0
  4  9  1  0  0  0  0
  4 10  1  0  0  0  0
  4 11  1  0  0  0  0
  5  6  1  0  0  0  0
  5  7  1  0  0  0  0
  5  8  1  0  0  0  0
M  END
