lig_p38a_3flw
 OpenBabel11122110533D

 19 18  0  0  0  0  0  0  0  0999 V2000
   33.6700   39.5700   24.9300 *   0  0  0  0  0  0  0  0  0  0  0  0
   33.0800   38.7200   26.0400 C   0  0  0  0  0  0  0  0  0  0  0  0
   33.9700   38.8300   27.3000 C   0  0  0  0  0  0  0  0  0  0  0  0
   31.6600   39.2200   26.3700 C   0  0  0  0  0  0  0  0  0  0  0  0
   33.0300   37.6800   25.7200 H   0  0  0  0  0  0  0  0  0  0  0  0
   33.5400   38.2200   28.0900 H   0  0  0  0  0  0  0  0  0  0  0  0
   35.3800   38.3200   26.9700 C   0  0  0  0  0  0  0  0  0  0  0  0
   34.0200   39.8700   27.6200 H   0  0  0  0  0  0  0  0  0  0  0  0
   31.2400   38.6200   27.1700 H   0  0  0  0  0  0  0  0  0  0  0  0
   31.7100   40.2600   26.7000 H   0  0  0  0  0  0  0  0  0  0  0  0
   30.7700   39.1200   25.1200 C   0  0  0  0  0  0  0  0  0  0  0  0
   29.7700   39.4800   25.3600 H   0  0  0  0  0  0  0  0  0  0  0  0
   31.2000   39.7300   24.3200 H   0  0  0  0  0  0  0  0  0  0  0  0
   30.7100   37.7700   24.7000 O   0  0  0  0  0  0  0  0  0  0  0  0
   36.3400   39.0900   27.6600 O   0  0  0  0  0  0  0  0  0  0  0  0
   35.4800   37.2700   27.2600 H   0  0  0  0  0  0  0  0  0  0  0  0
   35.5600   38.4100   25.8900 H   0  0  0  0  0  0  0  0  0  0  0  0
   36.8800   39.5800   27.0400 H   0  0  0  0  0  0  0  0  0  0  0  0
   31.5900   37.4000   24.7000 H   0  0  0  0  0  0  0  0  0  0  0  0
  1  2  1  0  0  0  0
  2  3  1  0  0  0  0
  2  4  1  0  0  0  0
  2  5  1  0  0  0  0
  3  6  1  0  0  0  0
  3  7  1  0  0  0  0
  3  8  1  0  0  0  0
  4  9  1  0  0  0  0
  4 10  1  0  0  0  0
  4 11  1  0  0  0  0
  7 15  1  0  0  0  0
  7 16  1  0  0  0  0
  7 17  1  0  0  0  0
 11 12  1  0  0  0  0
 11 13  1  0  0  0  0
 11 14  1  0  0  0  0
 14 19  1  0  0  0  0
 15 18  1  0  0  0  0
A    1
R
M  END
