lig_18627-1
  PyMOL2.3          3D                             0

 12 12  0  0  0  0  0  0  0  0999 V2000
   21.5780    4.2950   30.6930 R   0  0  0  0  0  0  0  0  0  0  0  0
   23.0900    4.5080   30.6430 C   0  0  0  0  0  0  0  0  0  0  0  0
   23.6660    5.3060   29.6460 C   0  0  0  0  0  0  0  0  0  0  0  0
   25.0460    5.5100   29.6200 C   0  0  0  0  0  0  0  0  0  0  0  0
   25.8560    4.9160   30.5870 C   0  0  0  0  0  0  0  0  0  0  0  0
   27.5600    5.1730   30.5670 Cl  0  0  0  0  0  0  0  0  0  0  0  0
   25.2880    4.1160   31.5780 C   0  0  0  0  0  0  0  0  0  0  0  0
   23.9090    3.9120   31.6080 C   0  0  0  0  0  0  0  0  0  0  0  0
   23.0430    5.7720   28.8930 H   0  0  0  0  0  0  0  0  0  0  0  0
   25.4960    6.1270   28.8550 H   0  0  0  0  0  0  0  0  0  0  0  0
   25.9240    3.6580   32.3220 H   0  0  0  0  0  0  0  0  0  0  0  0
   23.4810    3.2860   32.3790 H   0  0  0  0  0  0  0  0  0  0  0  0
  1  2  1  0  0  0  0
  2  3  2  0  0  0  0
  2  8  1  0  0  0  0
  3  4  1  0  0  0  0
  3  9  1  0  0  0  0
  4  5  2  0  0  0  0
  4 10  1  0  0  0  0
  5  6  1  0  0  0  0
  5  7  1  0  0  0  0
  7  8  2  0  0  0  0
  7 11  1  0  0  0  0
  8 12  1  0  0  0  0
M  END
