lig_35_L
  PyMOL2.3          3D                             0

 29 30  0  0  1  0  0  0  0  0999 V2000
   15.7960  -11.3020   17.4660 C   0  0  0  0  0  0  0  0  0  0  0  0
   15.9710  -10.8470   19.9040 C   0  0  0  0  0  0  0  0  0  0  0  0
   16.3050  -12.6100   17.7360 O   0  0  0  0  0  0  0  0  0  0  0  0
   17.7170  -12.6300   17.5050 C   0  0  0  0  0  0  0  0  0  0  0  0
   17.4890  -11.0330   20.0280 C   0  0  0  0  0  0  0  0  0  0  0  0
   17.9880   -9.6710   20.5140 C   0  0  0  0  0  0  0  0  0  0  0  0
   16.9190   -9.2720   21.5330 C   0  0  0  0  0  0  0  0  0  0  0  0
   15.6010   -9.7220   20.8870 C   0  0  0  0  0  0  0  0  0  0  0  0
   15.4910  -10.9380   16.2090 C   0  0  0  0  0  0  0  0  0  0  0  0
   14.9940   -9.6730   15.9150 C   0  0  0  0  0  0  0  0  0  0  0  0
   14.7990   -8.7380   16.9380 C   0  0  0  0  0  0  0  0  0  0  0  0
   15.1230   -9.1390   18.2420 C   0  0  0  0  0  0  0  0  0  0  0  0
   15.6180  -10.4230   18.4660 C   0  0  0  0  0  0  0  0  0  0  0  0
   14.2470   -7.3370   16.6190 R   0  0  1  0  0  0  0  0  0  0  0  0
   15.6370  -11.6530   15.3990 H   0  0  0  0  0  0  0  0  0  0  0  0
   14.7560   -9.4090   14.8850 H   0  0  0  0  0  0  0  0  0  0  0  0
   14.9890   -8.4500   19.0760 H   0  0  0  0  0  0  0  0  0  0  0  0
   15.4230  -11.7960   20.1180 H   0  0  0  0  0  0  0  0  0  0  0  0
   17.9690  -11.3540   19.0720 H   0  0  0  0  0  0  0  0  0  0  0  0
   17.7130  -11.8060   20.8030 H   0  0  0  0  0  0  0  0  0  0  0  0
   18.0540  -11.6320   17.2290 H   0  0  0  0  0  0  0  0  0  0  0  0
   19.0140   -9.7150   20.9530 H   0  0  0  0  0  0  0  0  0  0  0  0
   17.9960   -8.9440   19.6660 H   0  0  0  0  0  0  0  0  0  0  0  0
   17.0870   -9.8380   22.4820 H   0  0  0  0  0  0  0  0  0  0  0  0
   16.9380   -8.1820   21.7740 H   0  0  0  0  0  0  0  0  0  0  0  0
   15.1400   -8.8680   20.3330 H   0  0  0  0  0  0  0  0  0  0  0  0
   14.8650  -10.0580   21.6570 H   0  0  0  0  0  0  0  0  0  0  0  0
   17.9440  -13.3280   16.6990 H   0  0  0  0  0  0  0  0  0  0  0  0
   18.2280  -12.9480   18.4140 H   0  0  0  0  0  0  0  0  0  0  0  0
  1  3  1  0  0  0  0
  1  9  2  0  0  0  0
  1 13  1  0  0  0  0
  2  5  1  0  0  0  0
  2  8  1  0  0  0  0
  2 13  1  0  0  0  0
  2 18  1  0  0  0  0
  3  4  1  0  0  0  0
  4 21  1  0  0  0  0
  4 28  1  0  0  0  0
  4 29  1  0  0  0  0
  5  6  1  0  0  0  0
  5 19  1  0  0  0  0
  5 20  1  0  0  0  0
  6  7  1  0  0  0  0
  6 22  1  0  0  0  0
  6 23  1  0  0  0  0
  7  8  1  0  0  0  0
  7 24  1  0  0  0  0
  7 25  1  0  0  0  0
  8 26  1  0  0  0  0
  8 27  1  0  0  0  0
  9 10  1  0  0  0  0
  9 15  1  0  0  0  0
 10 11  2  0  0  0  0
 10 16  1  0  0  0  0
 11 12  1  0  0  0  0
 12 13  2  0  0  0  0
 12 17  1  0  0  0  0
 11 14  1  1  0  0  0
M  END
