lig_23476
  PyMOL2.3          3D                             0

 23 23  0  0  0  0  0  0  0  0999 V2000
   40.8100    9.7200   16.7900 R   0  0  0  0  0  0  0  0  0  0  0  0
   39.5000    9.2300   16.6200 N   0  0  0  0  0  0  0  0  0  0  0  0
   38.7500    9.9000   16.7100 H   0  0  0  0  0  0  0  0  0  0  0  0
   39.6900    7.2800   17.2000 H   0  0  0  0  0  0  0  0  0  0  0  0
   39.2600    7.8300   16.3600 C   0  0  0  0  0  0  0  0  0  0  0  0
   37.7400    7.5800   16.3500 C   0  0  0  0  0  0  0  0  0  0  0  0
   37.0400    7.9000   15.0200 C   0  0  0  0  0  0  0  0  0  0  0  0
   37.0300    6.6900   14.0700 C   0  0  0  0  0  0  0  0  0  0  0  0
   38.3800    6.4100   13.4100 C   0  0  0  0  0  0  0  0  0  0  0  0
   39.5200    6.1500   14.4100 C   0  0  0  0  0  0  0  0  0  0  0  0
   40.0100    7.4500   15.0700 C   0  0  0  0  0  0  0  0  0  0  0  0
   37.5300    6.5300   16.6600 H   0  0  0  0  0  0  0  0  0  0  0  0
   37.2900    8.2200   17.1500 H   0  0  0  0  0  0  0  0  0  0  0  0
   35.9900    8.1600   15.2400 H   0  0  0  0  0  0  0  0  0  0  0  0
   37.5000    8.7800   14.5300 H   0  0  0  0  0  0  0  0  0  0  0  0
   36.6800    5.7800   14.6100 H   0  0  0  0  0  0  0  0  0  0  0  0
   36.2900    6.8900   13.2700 H   0  0  0  0  0  0  0  0  0  0  0  0
   38.2700    5.5000   12.7700 H   0  0  0  0  0  0  0  0  0  0  0  0
   38.6500    7.2500   12.7200 H   0  0  0  0  0  0  0  0  0  0  0  0
   39.2200    5.4000   15.1700 H   0  0  0  0  0  0  0  0  0  0  0  0
   40.3700    5.7100   13.8400 H   0  0  0  0  0  0  0  0  0  0  0  0
   41.0900    7.3200   15.3300 H   0  0  0  0  0  0  0  0  0  0  0  0
   39.9700    8.2900   14.3500 H   0  0  0  0  0  0  0  0  0  0  0  0
  1  2  1  0  0  0  0
  2  3  1  0  0  0  0
  2  5  1  0  0  0  0
  4  5  1  0  0  0  0
  5  6  1  0  0  0  0
  5 11  1  0  0  0  0
  6  7  1  0  0  0  0
  6 12  1  0  0  0  0
  6 13  1  0  0  0  0
  7  8  1  0  0  0  0
  7 14  1  0  0  0  0
  7 15  1  0  0  0  0
  8  9  1  0  0  0  0
  8 16  1  0  0  0  0
  8 17  1  0  0  0  0
  9 10  1  0  0  0  0
  9 18  1  0  0  0  0
  9 19  1  0  0  0  0
 10 11  1  0  0  0  0
 10 20  1  0  0  0  0
 10 21  1  0  0  0  0
 11 22  1  0  0  0  0
 11 23  1  0  0  0  0
M  END
