lig_p38a_3fmk
 OpenBabel11122110533D

 16 16  0  0  1  0  0  0  0  0999 V2000
   33.0500   38.9400   26.0900 C   0  0  1  0  0  0  0  0  0  0  0  0
   31.5900   39.4100   26.2500 C   0  0  0  0  0  0  0  0  0  0  0  0
   33.6700   39.5700   24.9300 *   0  0  0  0  0  0  0  0  0  0  0  0
   33.8700   39.2400   27.3500 C   0  0  0  0  0  0  0  0  0  0  0  0
   30.7400   38.9500   25.1600 N   0  0  0  0  0  0  0  0  0  0  0  0
   30.2600   39.7700   24.2100 N   0  0  0  0  0  0  0  0  0  0  0  0
   29.6000   38.8900   23.4700 C   0  0  0  0  0  0  0  0  0  0  0  0
   29.6600   37.6200   23.9400 N   0  0  0  0  0  0  0  0  0  0  0  0
   30.3700   37.6600   25.0200 N   0  0  0  0  0  0  0  0  0  0  0  0
   33.0600   37.8600   25.9500 H   0  0  0  0  0  0  0  0  0  0  0  0
   31.1800   39.0200   27.1800 H   0  0  0  0  0  0  0  0  0  0  0  0
   31.5500   40.4900   26.3000 H   0  0  0  0  0  0  0  0  0  0  0  0
   34.9100   38.9300   27.2300 H   0  0  0  0  0  0  0  0  0  0  0  0
   33.8600   40.3000   27.5900 H   0  0  0  0  0  0  0  0  0  0  0  0
   33.4700   38.7000   28.2100 H   0  0  0  0  0  0  0  0  0  0  0  0
   29.0400   39.1700   22.5900 H   0  0  0  0  0  0  0  0  0  0  0  0
  1  2  1  0  0  0  0
  1  3  1  0  0  0  0
  1  4  1  0  0  0  0
  1 10  1  6  0  0  0
  2  5  1  0  0  0  0
  2 11  1  0  0  0  0
  2 12  1  0  0  0  0
  4 13  1  0  0  0  0
  4 14  1  0  0  0  0
  4 15  1  0  0  0  0
  5  6  1  0  0  0  0
  5  9  1  0  0  0  0
  6  7  2  0  0  0  0
  7  8  1  0  0  0  0
  7 16  1  0  0  0  0
  8  9  2  0  0  0  0
A    3
R
M  END
