lig_33
  PyMOL2.3          3D                             0

 12 12  0  0  0  0  0  0  0  0999 V2000
   -1.8025  -46.3091    7.5189 R   0  0  0  0  0  0  0  0  0  0  0  0
   -2.6600  -46.2600    8.1900 C   0  0  0  0  0  0  0  0  0  0  0  0
   -2.6200  -46.9200    9.3900 C   0  0  0  0  0  0  0  0  0  0  0  0
   -1.7400  -47.4900    9.6800 H   0  0  0  0  0  0  0  0  0  0  0  0
   -3.7300  -46.8600   10.2300 C   0  0  0  0  0  0  0  0  0  0  0  0
   -3.7000  -47.3800   11.1800 H   0  0  0  0  0  0  0  0  0  0  0  0
   -4.8700  -46.1400    9.8700 C   0  0  0  0  0  0  0  0  0  0  0  0
   -6.2500  -46.0800   10.9500 Cl  0  0  0  0  0  0  0  0  0  0  0  0
   -4.8900  -45.4700    8.6600 C   0  0  0  0  0  0  0  0  0  0  0  0
   -5.7700  -44.9100    8.3700 H   0  0  0  0  0  0  0  0  0  0  0  0
   -3.7800  -45.5300    7.8200 C   0  0  0  0  0  0  0  0  0  0  0  0
   -3.8000  -45.0000    6.8700 H   0  0  0  0  0  0  0  0  0  0  0  0
  1  2  1  0  0  0  0
  2  3  1  0  0  0  0
  2 11  2  0  0  0  0
  3  4  1  0  0  0  0
  3  5  2  0  0  0  0
  5  6  1  0  0  0  0
  5  7  1  0  0  0  0
  7  8  1  0  0  0  0
  7  9  2  0  0  0  0
  9 10  1  0  0  0  0
  9 11  1  0  0  0  0
 11 12  1  0  0  0  0
M  END
