lig_20667_2qbp
  PyMOL2.3          3D                             0

 35 36  0  0  0  0  0  0  0  0999 V2000
   40.8100    9.7200   16.7900 R   0  0  0  0  0  0  0  0  0  0  0  0
   39.5000    9.2300   16.6200 N   0  0  0  0  0  0  0  0  0  0  0  0
   39.2600    7.8200   16.3600 C   0  0  0  0  0  0  0  0  0  0  0  0
   37.7400    7.5400   16.3200 C   0  0  0  0  0  0  0  0  0  0  0  0
   37.4100    6.0900   15.9100 C   0  0  0  0  0  0  0  0  0  0  0  0
   38.1200    5.7200   14.6700 N   0  0  0  0  0  0  0  0  0  0  0  0
   37.3800    4.7100   13.5000 S   0  0  0  0  0  0  0  0  0  0  0  0
   38.1900    4.8000   12.2800 O   0  0  0  0  0  0  0  0  0  0  0  0
   35.9400    5.0200   13.4600 O   0  0  0  0  0  0  0  0  0  0  0  0
   37.6100    3.0200   14.2100 C   0  0  0  0  0  0  0  0  0  0  0  0
   37.2200    2.0000   13.1600 C   0  0  0  0  0  0  0  0  0  0  0  0
   35.8900    1.5900   13.0400 C   0  0  0  0  0  0  0  0  0  0  0  0
   35.5300    0.6800   12.0400 C   0  0  0  0  0  0  0  0  0  0  0  0
   36.4900    0.1800   11.1700 C   0  0  0  0  0  0  0  0  0  0  0  0
   37.8300    0.5800   11.3000 C   0  0  0  0  0  0  0  0  0  0  0  0
   38.1900    1.4800   12.2900 C   0  0  0  0  0  0  0  0  0  0  0  0
   39.5800    5.9000   14.6900 C   0  0  0  0  0  0  0  0  0  0  0  0
   39.9400    7.3500   15.0500 C   0  0  0  0  0  0  0  0  0  0  0  0
   38.7500    9.9000   16.7100 H   0  0  0  0  0  0  0  0  0  0  0  0
   39.6900    7.2800   17.2000 H   0  0  0  0  0  0  0  0  0  0  0  0
   37.2900    7.7500   17.2900 H   0  0  0  0  0  0  0  0  0  0  0  0
   37.2700    8.2200   15.6100 H   0  0  0  0  0  0  0  0  0  0  0  0
   37.7000    5.3800   16.6900 H   0  0  0  0  0  0  0  0  0  0  0  0
   36.3300    5.9600   15.7800 H   0  0  0  0  0  0  0  0  0  0  0  0
   38.6500    2.9200   14.5200 H   0  0  0  0  0  0  0  0  0  0  0  0
   37.0000    2.9100   15.1100 H   0  0  0  0  0  0  0  0  0  0  0  0
   35.1300    1.9800   13.7000 H   0  0  0  0  0  0  0  0  0  0  0  0
   34.5000    0.3700   11.9400 H   0  0  0  0  0  0  0  0  0  0  0  0
   36.2200   -0.5100   10.3900 H   0  0  0  0  0  0  0  0  0  0  0  0
   38.5700    0.1900   10.6100 H   0  0  0  0  0  0  0  0  0  0  0  0
   39.2200    1.7800   12.3900 H   0  0  0  0  0  0  0  0  0  0  0  0
   39.9800    5.1900   15.4100 H   0  0  0  0  0  0  0  0  0  0  0  0
   39.9900    5.6200   13.7300 H   0  0  0  0  0  0  0  0  0  0  0  0
   39.6400    8.0100   14.2300 H   0  0  0  0  0  0  0  0  0  0  0  0
   41.0200    7.4400   15.1400 H   0  0  0  0  0  0  0  0  0  0  0  0
  1  2  1  0  0  0  0
  2  3  1  0  0  0  0
  2 19  1  0  0  0  0
  3  4  1  0  0  0  0
  3 18  1  0  0  0  0
  3 20  1  0  0  0  0
  4  5  1  0  0  0  0
  4 21  1  0  0  0  0
  4 22  1  0  0  0  0
  5  6  1  0  0  0  0
  5 23  1  0  0  0  0
  5 24  1  0  0  0  0
  6  7  1  0  0  0  0
  6 17  1  0  0  0  0
  7  8  2  0  0  0  0
  7  9  2  0  0  0  0
  7 10  1  0  0  0  0
 10 11  1  0  0  0  0
 10 25  1  0  0  0  0
 10 26  1  0  0  0  0
 11 12  2  0  0  0  0
 11 16  1  0  0  0  0
 12 13  1  0  0  0  0
 12 27  1  0  0  0  0
 13 14  2  0  0  0  0
 13 28  1  0  0  0  0
 14 15  1  0  0  0  0
 14 29  1  0  0  0  0
 15 16  2  0  0  0  0
 15 30  1  0  0  0  0
 16 31  1  0  0  0  0
 17 18  1  0  0  0  0
 17 32  1  0  0  0  0
 17 33  1  0  0  0  0
 18 34  1  0  0  0  0
 18 35  1  0  0  0  0
M  END
