lig_29
 OpenBabel12152122293D

 15 14  0  0  0  0  0  0  0  0999 V2000
   27.7193   17.1383    7.5684 H   0  0  0  0  0  0  0  0  0  0  0  0
   29.1698   18.8005    6.8466 H   0  0  0  0  0  0  0  0  0  0  0  0
   26.9500   15.3200    9.1900 *   0  0  0  0  0  0  0  0  0  0  0  0
   27.6100   16.4600    9.5300 O   0  0  0  0  0  0  0  0  0  0  0  0
   28.3800   16.9300    8.4100 C   0  0  0  0  0  0  0  0  0  0  0  0
   29.0700   18.1200    8.7900 C   0  0  0  0  0  0  0  0  0  0  0  0
   28.1300   19.1200    9.1700 C   0  0  0  0  0  0  0  0  0  0  0  0
   27.4600   19.3400    8.3300 H   0  0  0  0  0  0  0  0  0  0  0  0
   28.6600   20.0300    9.4500 H   0  0  0  0  0  0  0  0  0  0  0  0
   27.5400   18.7700   10.0200 H   0  0  0  0  0  0  0  0  0  0  0  0
   29.8400   18.5900    7.6800 C   0  0  0  0  0  0  0  0  0  0  0  0
   30.5600   17.8300    7.3800 H   0  0  0  0  0  0  0  0  0  0  0  0
   30.3700   19.5000    7.9600 H   0  0  0  0  0  0  0  0  0  0  0  0
   29.7400   17.9100    9.6200 H   0  0  0  0  0  0  0  0  0  0  0  0
   29.1000   16.1700    8.1200 H   0  0  0  0  0  0  0  0  0  0  0  0
  1  5  1  0  0  0  0
  2 11  1  0  0  0  0
  3  4  1  0  0  0  0
  4  5  1  0  0  0  0
  5  6  1  0  0  0  0
  5 15  1  0  0  0  0
  6  7  1  0  0  0  0
  6 11  1  0  0  0  0
  6 14  1  0  0  0  0
  7  8  1  0  0  0  0
  7  9  1  0  0  0  0
  7 10  1  0  0  0  0
 11 12  1  0  0  0  0
 11 13  1  0  0  0  0
A    3
R
M  END
