lig_23469
  PyMOL2.3          3D                             0

 16 16  0  0  0  0  0  0  0  0999 V2000
   40.7400    9.7900   16.8400 R   0  0  0  0  0  0  0  0  0  0  0  0
   39.4000    9.3800   16.7700 N   0  0  0  0  0  0  0  0  0  0  0  0
   38.9700    8.0200   17.0800 C   0  0  0  0  0  0  0  0  0  0  0  0
   39.6100    7.2000   17.7400 O   0  0  0  0  0  0  0  0  0  0  0  0
   37.5800    7.7000   16.5400 C   0  0  0  0  0  0  0  0  0  0  0  0
   37.0100    6.4400   16.7200 C   0  0  0  0  0  0  0  0  0  0  0  0
   35.7200    6.1700   16.2400 C   0  0  0  0  0  0  0  0  0  0  0  0
   34.9900    7.1700   15.6000 C   0  0  0  0  0  0  0  0  0  0  0  0
   35.5500    8.4300   15.4200 C   0  0  0  0  0  0  0  0  0  0  0  0
   36.8400    8.7000   15.8900 C   0  0  0  0  0  0  0  0  0  0  0  0
   38.7500   10.0600   16.4100 H   0  0  0  0  0  0  0  0  0  0  0  0
   37.5500    5.6500   17.2300 H   0  0  0  0  0  0  0  0  0  0  0  0
   35.3000    5.1800   16.3700 H   0  0  0  0  0  0  0  0  0  0  0  0
   33.9900    6.9600   15.2500 H   0  0  0  0  0  0  0  0  0  0  0  0
   34.9900    9.2100   14.9300 H   0  0  0  0  0  0  0  0  0  0  0  0
   37.2700    9.6800   15.7400 H   0  0  0  0  0  0  0  0  0  0  0  0
  1  2  1  0  0  0  0
  2  3  1  0  0  0  0
  2 11  1  0  0  0  0
  3  4  2  0  0  0  0
  3  5  1  0  0  0  0
  5  6  2  0  0  0  0
  5 10  1  0  0  0  0
  6  7  1  0  0  0  0
  6 12  1  0  0  0  0
  7  8  2  0  0  0  0
  7 13  1  0  0  0  0
  8  9  1  0  0  0  0
  8 14  1  0  0  0  0
  9 10  2  0  0  0  0
  9 15  1  0  0  0  0
 10 16  1  0  0  0  0
M  END
