lig_ejm_31
  PyMOL2.6          3D                             0

  5  4  0  0  0  0  0  0  0  0999 V2000
   -5.7100   29.4500  -31.2300 R   0  0  0  0  0  0  0  0  0  0  0  0
   -6.2300   30.8500  -31.0300 C   0  0  0  0  0  0  0  0  0  0  0  0
   -7.3100   30.9400  -31.1600 H   0  0  0  0  0  0  0  0  0  0  0  0
   -5.7200   31.5200  -31.7200 H   0  0  0  0  0  0  0  0  0  0  0  0
   -5.9600   31.1900  -30.0400 H   0  0  0  0  0  0  0  0  0  0  0  0
  1  2  1  0  0  0  0
  2  3  1  0  0  0  0
  2  4  1  0  0  0  0
  2  5  1  0  0  0  0
M  END
