6e
  PyMOL2.3          3D                             0

 12 12  0  0  0  0  0  0  0  0999 V2000
   14.7040  -10.2160   20.2150 R   0  0  0  0  0  0  0  0  0  0  0  0
   13.6410  -10.3570   21.2910 C   0  0  0  0  0  0  0  0  0  0  0  0
   12.9050  -11.5530   21.4230 C   0  0  0  0  0  0  0  0  0  0  0  0
   11.8940  -11.6570   22.4010 C   0  0  0  0  0  0  0  0  0  0  0  0
   11.6200  -10.5700   23.2550 C   0  0  0  0  0  0  0  0  0  0  0  0
   12.3720   -9.3840   23.1460 C   0  0  0  0  0  0  0  0  0  0  0  0
   13.3730   -9.2780   22.1610 C   0  0  0  0  0  0  0  0  0  0  0  0
   13.1640  -12.5860   20.6220 F   0  0  0  0  0  0  0  0  0  0  0  0
   11.3290  -12.5740   22.5020 H   0  0  0  0  0  0  0  0  0  0  0  0
   12.1060   -8.0750   24.2430 Cl  0  0  0  0  0  0  0  0  0  0  0  0
   13.9510   -8.3700   22.0900 H   0  0  0  0  0  0  0  0  0  0  0  0
   10.8470  -10.6550   24.0060 H   0  0  0  0  0  0  0  0  0  0  0  0
  1  2  1  0  0  0  0
  2  3  1  0  0  0  0
  2  7  2  0  0  0  0
  3  4  2  0  0  0  0
  3  8  1  0  0  0  0
  4  5  1  0  0  0  0
  4  9  1  0  0  0  0
  5  6  2  0  0  0  0
  5 12  1  0  0  0  0
  6  7  1  0  0  0  0
  6 10  1  0  0  0  0
  7 11  1  0  0  0  0
M  END
