lig_23473
  PyMOL2.3          3D                             0

 16 16  0  0  0  0  0  0  0  0999 V2000
   40.7400    9.7900   16.8400 R   0  0  0  0  0  0  0  0  0  0  0  0
   39.4000    9.3800   16.7700 O   0  0  0  0  0  0  0  0  0  0  0  0
   39.0000    7.9700   16.7100 C   0  0  0  0  0  0  0  0  0  0  0  0
   39.0500    7.4100   15.3000 C   0  0  0  0  0  0  0  0  0  0  0  0
   40.2600    7.0600   14.7100 C   0  0  0  0  0  0  0  0  0  0  0  0
   40.2900    6.5200   13.4200 C   0  0  0  0  0  0  0  0  0  0  0  0
   39.1100    6.3100   12.7200 C   0  0  0  0  0  0  0  0  0  0  0  0
   37.8900    6.6600   13.3100 C   0  0  0  0  0  0  0  0  0  0  0  0
   37.8500    7.2100   14.5900 C   0  0  0  0  0  0  0  0  0  0  0  0
   39.6600    7.3700   17.3300 H   0  0  0  0  0  0  0  0  0  0  0  0
   37.9800    7.8600   17.1000 H   0  0  0  0  0  0  0  0  0  0  0  0
   41.1900    7.2100   15.2400 H   0  0  0  0  0  0  0  0  0  0  0  0
   41.2400    6.2700   12.9600 H   0  0  0  0  0  0  0  0  0  0  0  0
   39.1300    5.8800   11.7300 H   0  0  0  0  0  0  0  0  0  0  0  0
   36.9700    6.5000   12.7700 H   0  0  0  0  0  0  0  0  0  0  0  0
   36.9100    7.4700   15.0300 H   0  0  0  0  0  0  0  0  0  0  0  0
  1  2  1  0  0  0  0
  2  3  1  0  0  0  0
  3  4  1  0  0  0  0
  3 10  1  0  0  0  0
  3 11  1  0  0  0  0
  4  5  2  0  0  0  0
  4  9  1  0  0  0  0
  5  6  1  0  0  0  0
  5 12  1  0  0  0  0
  6  7  2  0  0  0  0
  6 13  1  0  0  0  0
  7  8  1  0  0  0  0
  7 14  1  0  0  0  0
  8  9  2  0  0  0  0
  8 15  1  0  0  0  0
  9 16  1  0  0  0  0
M  END
