lig_18625-1
  PyMOL2.3          3D                             0

 12 12  0  0  0  0  0  0  0  0999 V2000
   21.7260    4.6150   30.2080 R   0  0  0  0  0  0  0  0  0  0  0  0
   23.0590    4.2600   30.8640 C   0  0  0  0  0  0  0  0  0  0  0  0
   23.1400    3.3560   31.9370 C   0  0  0  0  0  0  0  0  0  0  0  0
   21.7340    2.5730   32.5720 Cl  0  0  0  0  0  0  0  0  0  0  0  0
   24.3760    3.0740   32.5190 C   0  0  0  0  0  0  0  0  0  0  0  0
   25.5380    3.6730   32.0320 C   0  0  0  0  0  0  0  0  0  0  0  0
   25.4620    4.5660   30.9650 C   0  0  0  0  0  0  0  0  0  0  0  0
   24.2280    4.8610   30.3870 C   0  0  0  0  0  0  0  0  0  0  0  0
   24.4290    2.3850   33.3490 H   0  0  0  0  0  0  0  0  0  0  0  0
   26.4940    3.4490   32.4840 H   0  0  0  0  0  0  0  0  0  0  0  0
   26.3590    5.0420   30.5920 H   0  0  0  0  0  0  0  0  0  0  0  0
   24.1840    5.5760   29.5770 H   0  0  0  0  0  0  0  0  0  0  0  0
  1  2  1  0  0  0  0
  2  3  2  0  0  0  0
  2  8  1  0  0  0  0
  3  4  1  0  0  0  0
  3  5  1  0  0  0  0
  5  6  2  0  0  0  0
  5  9  1  0  0  0  0
  6  7  1  0  0  0  0
  6 10  1  0  0  0  0
  7  8  2  0  0  0  0
  7 11  1  0  0  0  0
  8 12  1  0  0  0  0
M  END
