lig_39
 OpenBabel12152122293D

 10 10  0  0  0  0  0  0  0  0999 V2000
   26.9500   15.3200    9.1900 *   0  0  0  0  0  0  0  0  0  0  0  0
   27.6400   16.5100    9.5400 C   0  0  0  0  0  0  0  0  0  0  0  0
   27.0500   17.4600   10.4000 C   0  0  0  0  0  0  0  0  0  0  0  0
   26.0600   17.2800   10.8100 H   0  0  0  0  0  0  0  0  0  0  0  0
   27.7400   18.6500   10.7300 N   0  0  0  0  0  0  0  0  0  0  0  0
   29.0300   18.9000   10.1900 C   0  0  0  0  0  0  0  0  0  0  0  0
   29.5500   19.8100   10.4400 H   0  0  0  0  0  0  0  0  0  0  0  0
   29.6200   17.9500    9.3100 N   0  0  0  0  0  0  0  0  0  0  0  0
   28.9200   16.7700    8.9900 C   0  0  0  0  0  0  0  0  0  0  0  0
   29.3700   16.0500    8.3100 H   0  0  0  0  0  0  0  0  0  0  0  0
  1  2  1  0  0  0  0
  2  3  2  0  0  0  0
  2  9  1  0  0  0  0
  3  4  1  0  0  0  0
  3  5  1  0  0  0  0
  5  6  2  0  0  0  0
  6  7  1  0  0  0  0
  6  8  1  0  0  0  0
  8  9  2  0  0  0  0
  9 10  1  0  0  0  0
A    1
R
M  END
