1d
  PyMOL2.3          3D                             0

 12 12  0  0  0  0  0  0  0  0999 V2000
   14.7140  -10.2250   20.2030 R   0  0  0  0  0  0  0  0  0  0  0  0
   13.6470  -10.3700   21.2730 C   0  0  0  0  0  0  0  0  0  0  0  0
   12.9110  -11.5670   21.3980 C   0  0  0  0  0  0  0  0  0  0  0  0
   11.8980  -11.6760   22.3730 C   0  0  0  0  0  0  0  0  0  0  0  0
   11.6220  -10.5920   23.2310 C   0  0  0  0  0  0  0  0  0  0  0  0
   12.3740   -9.4060   23.1280 C   0  0  0  0  0  0  0  0  0  0  0  0
   13.3770   -9.2950   22.1450 C   0  0  0  0  0  0  0  0  0  0  0  0
   13.1240  -12.4030   20.7460 H   0  0  0  0  0  0  0  0  0  0  0  0
   11.3350  -12.5940   22.4710 H   0  0  0  0  0  0  0  0  0  0  0  0
   12.0630   -7.8310   24.4710 I   0  0  0  0  0  0  0  0  0  0  0  0
   13.9550   -8.3870   22.0790 H   0  0  0  0  0  0  0  0  0  0  0  0
   10.8490  -10.6820   23.9820 H   0  0  0  0  0  0  0  0  0  0  0  0
  1  2  1  0  0  0  0
  2  3  1  0  0  0  0
  2  7  2  0  0  0  0
  3  4  2  0  0  0  0
  3  8  1  0  0  0  0
  4  5  1  0  0  0  0
  4  9  1  0  0  0  0
  5  6  2  0  0  0  0
  5 12  1  0  0  0  0
  6  7  1  0  0  0  0
  6 10  1  0  0  0  0
  7 11  1  0  0  0  0
M  END
