lig_23474
  PyMOL2.3          3D                             0

 23 23  0  0  0  0  0  0  0  0999 V2000
   40.7400    9.7900   16.8400 R   0  0  0  0  0  0  0  0  0  0  0  0
   39.4000    9.3800   16.7700 N   0  0  0  0  0  0  0  0  0  0  0  0
   39.0000    7.9700   16.7100 C   0  0  0  0  0  0  0  0  0  0  0  0
   38.6600   10.0600   16.8100 H   0  0  0  0  0  0  0  0  0  0  0  0
   39.6600    7.3800   17.3400 H   0  0  0  0  0  0  0  0  0  0  0  0
   37.9900    7.8700   17.1200 H   0  0  0  0  0  0  0  0  0  0  0  0
   39.1400    8.2800   14.5900 H   0  0  0  0  0  0  0  0  0  0  0  0
   37.8000    6.0500   13.5700 C   0  0  0  0  0  0  0  0  0  0  0  0
   37.7600    6.6600   14.9700 C   0  0  0  0  0  0  0  0  0  0  0  0
   39.0500    7.4300   15.2900 C   0  0  0  0  0  0  0  0  0  0  0  0
   40.2800    6.5100   15.1300 C   0  0  0  0  0  0  0  0  0  0  0  0
   40.3300    5.9000   13.7200 C   0  0  0  0  0  0  0  0  0  0  0  0
   39.0300    5.1400   13.4000 C   0  0  0  0  0  0  0  0  0  0  0  0
   37.8400    6.8600   12.8100 H   0  0  0  0  0  0  0  0  0  0  0  0
   36.8700    5.4600   13.3700 H   0  0  0  0  0  0  0  0  0  0  0  0
   37.6100    5.8500   15.7300 H   0  0  0  0  0  0  0  0  0  0  0  0
   36.8800    7.3500   15.0600 H   0  0  0  0  0  0  0  0  0  0  0  0
   41.2100    7.1000   15.3200 H   0  0  0  0  0  0  0  0  0  0  0  0
   40.2400    5.7000   15.8900 H   0  0  0  0  0  0  0  0  0  0  0  0
   40.4700    6.7100   12.9600 H   0  0  0  0  0  0  0  0  0  0  0  0
   41.2100    5.2200   13.6300 H   0  0  0  0  0  0  0  0  0  0  0  0
   38.9400    4.2600   14.0900 H   0  0  0  0  0  0  0  0  0  0  0  0
   39.0700    4.7300   12.3700 H   0  0  0  0  0  0  0  0  0  0  0  0
  1  2  1  0  0  0  0
  2  3  1  0  0  0  0
  2  4  1  0  0  0  0
  3  5  1  0  0  0  0
  3  6  1  0  0  0  0
  3 10  1  0  0  0  0
  7 10  1  0  0  0  0
  8  9  1  0  0  0  0
  8 13  1  0  0  0  0
  8 14  1  0  0  0  0
  8 15  1  0  0  0  0
  9 10  1  0  0  0  0
  9 16  1  0  0  0  0
  9 17  1  0  0  0  0
 10 11  1  0  0  0  0
 11 12  1  0  0  0  0
 11 18  1  0  0  0  0
 11 19  1  0  0  0  0
 12 13  1  0  0  0  0
 12 20  1  0  0  0  0
 12 21  1  0  0  0  0
 13 22  1  0  0  0  0
 13 23  1  0  0  0  0
M  END
