lig_20
  PyMOL2.3          3D                             0

 18 18  0  0  0  0  0  0  0  0999 V2000
    1.3800   28.9200    6.9700 R   0  0  0  0  0  0  0  0  0  0  0  0
    2.5000   28.4800    6.4600 N   0  0  0  0  0  0  0  0  0  0  0  0
    3.1000   27.3000    6.8500 C   0  0  0  0  0  0  0  0  0  0  0  0
    4.0100   26.7100    5.9500 C   0  0  0  0  0  0  0  0  0  0  0  0
    4.7200   25.5700    6.2300 C   0  0  0  0  0  0  0  0  0  0  0  0
    5.6500   25.0700    5.2700 C   0  0  0  0  0  0  0  0  0  0  0  0
    5.6500   25.7200    4.3900 H   0  0  0  0  0  0  0  0  0  0  0  0
    5.2700   23.7500    4.8800 O   0  0  0  0  0  0  0  0  0  0  0  0
    4.3900   23.8000    4.5000 H   0  0  0  0  0  0  0  0  0  0  0  0
    6.6500   25.0400    5.7100 H   0  0  0  0  0  0  0  0  0  0  0  0
    4.5600   24.9000    7.4200 C   0  0  0  0  0  0  0  0  0  0  0  0
    5.1000   23.9800    7.6300 H   0  0  0  0  0  0  0  0  0  0  0  0
    3.6500   25.4600    8.3900 C   0  0  0  0  0  0  0  0  0  0  0  0
    3.4900   24.9800    9.3400 H   0  0  0  0  0  0  0  0  0  0  0  0
    2.9900   26.6300    8.0700 C   0  0  0  0  0  0  0  0  0  0  0  0
    2.9400   29.0300    5.7400 H   0  0  0  0  0  0  0  0  0  0  0  0
    4.1500   27.1800    4.9900 H   0  0  0  0  0  0  0  0  0  0  0  0
    2.3500   27.0600    8.8200 H   0  0  0  0  0  0  0  0  0  0  0  0
  1  2  1  0  0  0  0
  2  3  1  0  0  0  0
  2 16  1  0  0  0  0
  3  4  1  0  0  0  0
  3 15  2  0  0  0  0
  4  5  2  0  0  0  0
  4 17  1  0  0  0  0
  5  6  1  0  0  0  0
  5 11  1  0  0  0  0
  6  7  1  0  0  0  0
  6  8  1  0  0  0  0
  6 10  1  0  0  0  0
  8  9  1  0  0  0  0
 11 12  1  0  0  0  0
 11 13  2  0  0  0  0
 13 14  1  0  0  0  0
 13 15  1  0  0  0  0
 15 18  1  0  0  0  0
M  END
