lig_p38a_2gg
 OpenBabel11122110533D

 18 18  0  0  0  0  0  0  0  0999 V2000
   33.6700   39.5700   24.9300 *   0  0  0  0  0  0  0  0  0  0  0  0
   31.1500   38.3500   27.5000 C   0  0  0  0  0  0  0  0  0  0  0  0
   31.7100   39.1700   26.3300 C   0  0  0  0  0  0  0  0  0  0  0  0
   33.1500   38.7500   26.0100 C   0  0  0  0  0  0  0  0  0  0  0  0
   34.0500   38.8900   27.2500 C   0  0  0  0  0  0  0  0  0  0  0  0
   33.4900   38.0700   28.4200 C   0  0  0  0  0  0  0  0  0  0  0  0
   31.0800   37.2700   27.2100 H   0  0  0  0  0  0  0  0  0  0  0  0
   30.1100   38.6900   27.7400 H   0  0  0  0  0  0  0  0  0  0  0  0
   31.6800   40.2500   26.5800 H   0  0  0  0  0  0  0  0  0  0  0  0
   31.0600   39.0300   25.4200 H   0  0  0  0  0  0  0  0  0  0  0  0
   33.1700   37.6900   25.6500 H   0  0  0  0  0  0  0  0  0  0  0  0
   35.0900   38.5500   27.0100 H   0  0  0  0  0  0  0  0  0  0  0  0
   34.1100   39.9700   27.5400 H   0  0  0  0  0  0  0  0  0  0  0  0
   33.5200   36.9900   28.1700 H   0  0  0  0  0  0  0  0  0  0  0  0
   34.1300   38.2100   29.3300 H   0  0  0  0  0  0  0  0  0  0  0  0
   32.0400   38.4900   28.7600 S   0  0  0  0  0  0  0  0  0  0  0  0
   32.0600   39.9200   29.1400 O   0  0  0  0  0  0  0  0  0  0  0  0
   31.5200   37.5600   29.7900 O   0  0  0  0  0  0  0  0  0  0  0  0
  1  4  1  0  0  0  0
  2  3  1  0  0  0  0
  2  7  1  0  0  0  0
  2  8  1  0  0  0  0
  2 16  1  0  0  0  0
  3  4  1  0  0  0  0
  3  9  1  0  0  0  0
  3 10  1  0  0  0  0
  4  5  1  0  0  0  0
  4 11  1  0  0  0  0
  5  6  1  0  0  0  0
  5 12  1  0  0  0  0
  5 13  1  0  0  0  0
  6 14  1  0  0  0  0
  6 15  1  0  0  0  0
  6 16  1  0  0  0  0
 16 17  2  0  0  0  0
 16 18  2  0  0  0  0
A    1
R
M  END
