1h1q
 OpenBabel03152209233D

 33 35  0  0  0  0  0  0  0  0999 V2000
    6.8700   44.4890   50.1810 N   0  0  0  0  0  0  0  0  0  0  0  0
    7.8210   43.7020   49.3990 C   0  0  0  0  0  0  0  0  0  0  0  0
    9.0610   43.9200   49.5710 N   0  0  0  0  0  0  0  0  0  0  0  0
    9.5340   44.9120   50.4780 C   0  0  0  0  0  0  0  0  0  0  0  0
    8.6590   45.6250   51.1990 C   0  0  0  0  0  0  0  0  0  0  0  0
    7.2370   45.3850   51.0370 C   0  0  0  0  0  0  0  0  0  0  0  0
    6.3200   46.0740   51.7360 O   0  0  0  0  0  0  0  0  0  0  0  0
    9.5490   46.4520   51.9630 N   0  0  0  0  0  0  0  0  0  0  0  0
   10.7390   46.1550   51.6470 C   0  0  0  0  0  0  0  0  0  0  0  0
   10.7730   45.2130   50.7360 N   0  0  0  0  0  0  0  0  0  0  0  0
    5.1160   45.2740   51.6170 C   0  0  0  0  0  0  0  0  0  0  0  0
    4.1070   45.7240   52.7030 C   0  0  0  0  0  0  0  0  0  0  0  0
    2.7660   45.9860   51.9860 C   0  0  0  0  0  0  0  0  0  0  0  0
    1.5620   46.0860   52.9390 C   0  0  0  0  0  0  0  0  0  0  0  0
    1.4480   44.9690   53.9870 C   0  0  0  0  0  0  0  0  0  0  0  0
    2.7870   44.7400   54.7250 C   0  0  0  0  0  0  0  0  0  0  0  0
    4.0090   44.6090   53.7920 C   0  0  0  0  0  0  0  0  0  0  0  0
    7.4951   42.9900   48.7267 H   0  0  0  0  0  0  0  0  0  0  0  0
   11.5765   46.5988   52.0553 H   0  0  0  0  0  0  0  0  0  0  0  0
   11.5753   44.8135   50.3287 H   0  0  0  0  0  0  0  0  0  0  0  0
    5.3560   44.2405   51.7555 H   0  0  0  0  0  0  0  0  0  0  0  0
    4.6869   45.4058   50.6457 H   0  0  0  0  0  0  0  0  0  0  0  0
    4.4079   46.6195   53.2055 H   0  0  0  0  0  0  0  0  0  0  0  0
    2.5878   45.1843   51.3001 H   0  0  0  0  0  0  0  0  0  0  0  0
    2.8546   46.9326   51.4950 H   0  0  0  0  0  0  0  0  0  0  0  0
    0.6714   46.0728   52.3461 H   0  0  0  0  0  0  0  0  0  0  0  0
    1.7017   46.9915   53.4917 H   0  0  0  0  0  0  0  0  0  0  0  0
    1.1622   44.0616   53.4973 H   0  0  0  0  0  0  0  0  0  0  0  0
    0.7146   45.2619   54.7089 H   0  0  0  0  0  0  0  0  0  0  0  0
    2.7046   43.8403   55.2983 H   0  0  0  0  0  0  0  0  0  0  0  0
    2.9552   45.6047   55.3324 H   0  0  0  0  0  0  0  0  0  0  0  0
    4.8944   44.6472   54.3917 H   0  0  0  0  0  0  0  0  0  0  0  0
    3.8997   43.6805   53.2716 H   0  0  0  0  0  0  0  0  0  0  0  0
  1  6  2  0  0  0  0
  1  2  1  0  0  0  0
  2  3  2  0  0  0  0
  2 18  1  0  0  0  0
  3  4  1  0  0  0  0
  4  5  2  0  0  0  0
  4 10  1  0  0  0  0
  5  8  1  0  0  0  0
  5  6  1  0  0  0  0
  6  7  1  0  0  0  0
  7 11  1  0  0  0  0
  8  9  2  0  0  0  0
  9 10  1  0  0  0  0
  9 19  1  0  0  0  0
 10 20  1  0  0  0  0
 11 12  1  0  0  0  0
 11 21  1  0  0  0  0
 11 22  1  0  0  0  0
 12 13  1  0  0  0  0
 12 17  1  0  0  0  0
 12 23  1  0  0  0  0
 13 14  1  0  0  0  0
 13 24  1  0  0  0  0
 13 25  1  0  0  0  0
 14 15  1  0  0  0  0
 14 26  1  0  0  0  0
 14 27  1  0  0  0  0
 15 16  1  0  0  0  0
 15 28  1  0  0  0  0
 15 29  1  0  0  0  0
 16 17  1  0  0  0  0
 16 30  1  0  0  0  0
 16 31  1  0  0  0  0
 17 32  1  0  0  0  0
 17 33  1  0  0  0  0
M  END
$$$$
