lig_23468
  PyMOL2.3          3D                             0

 12 11  0  0  0  0  0  0  0  0999 V2000
   40.7400    9.7900   16.8400 R   0  0  0  0  0  0  0  0  0  0  0  0
   39.4000    9.3800   16.7700 N   0  0  0  0  0  0  0  0  0  0  0  0
   38.9700    8.0200   17.0800 C   0  0  0  0  0  0  0  0  0  0  0  0
   39.6100    7.2000   17.7400 O   0  0  0  0  0  0  0  0  0  0  0  0
   37.5600    7.7000   16.5400 C   0  0  0  0  0  0  0  0  0  0  0  0
   38.7500   10.0600   16.4100 H   0  0  0  0  0  0  0  0  0  0  0  0
   36.9400    6.3100   16.7700 C   0  0  0  0  0  0  0  0  0  0  0  0
   37.0000    8.4700   15.9900 H   0  0  0  0  0  0  0  0  0  0  0  0
   36.8600    6.1200   17.8400 H   0  0  0  0  0  0  0  0  0  0  0  0
   38.0000    7.3500   15.6000 H   0  0  0  0  0  0  0  0  0  0  0  0
   35.9500    6.2700   16.3100 H   0  0  0  0  0  0  0  0  0  0  0  0
   37.5800    5.5500   16.3100 H   0  0  0  0  0  0  0  0  0  0  0  0
  1  2  1  0  0  0  0
  2  3  1  0  0  0  0
  2  6  1  0  0  0  0
  3  4  2  0  0  0  0
  3  5  1  0  0  0  0
  5  7  1  0  0  0  0
  5  8  1  0  0  0  0
  5 10  1  0  0  0  0
  7  9  1  0  0  0  0
  7 11  1  0  0  0  0
  7 12  1  0  0  0  0
M  END
