lig_29
  PyMOL2.3          3D                             0

 25 25  0  0  0  0  0  0  0  0999 V2000
    1.3800   28.9200    6.9700 R   0  0  0  0  0  0  0  0  0  0  0  0
    2.5000   28.4800    6.4600 N   0  0  0  0  0  0  0  0  0  0  0  0
    3.1000   27.3000    6.8500 C   0  0  0  0  0  0  0  0  0  0  0  0
    4.0100   26.7100    5.9500 C   0  0  0  0  0  0  0  0  0  0  0  0
    4.7200   25.5700    6.2300 C   0  0  0  0  0  0  0  0  0  0  0  0
    5.4300   25.1900    5.5000 H   0  0  0  0  0  0  0  0  0  0  0  0
    4.5600   24.9000    7.4200 C   0  0  0  0  0  0  0  0  0  0  0  0
    3.6500   25.4600    8.3900 C   0  0  0  0  0  0  0  0  0  0  0  0
    3.4900   24.9800    9.3400 H   0  0  0  0  0  0  0  0  0  0  0  0
    2.9900   26.6300    8.0700 C   0  0  0  0  0  0  0  0  0  0  0  0
    2.9400   29.0300    5.7400 H   0  0  0  0  0  0  0  0  0  0  0  0
    4.1500   27.1800    4.9900 H   0  0  0  0  0  0  0  0  0  0  0  0
    2.3500   27.0600    8.8200 H   0  0  0  0  0  0  0  0  0  0  0  0
    5.4000   23.4600    7.7400 S   0  0  0  0  0  0  0  0  0  0  0  0
    4.6000   22.3600    7.2400 O   0  0  0  0  0  0  0  0  0  0  0  0
    6.7600   23.6300    7.2700 O   0  0  0  0  0  0  0  0  0  0  0  0
    4.5900   24.0300   10.1900 C   0  0  0  0  0  0  0  0  0  0  0  0
    4.7600   23.8300   11.2400 H   0  0  0  0  0  0  0  0  0  0  0  0
    3.5700   23.7500    9.9300 H   0  0  0  0  0  0  0  0  0  0  0  0
    4.7300   25.1000   10.0000 H   0  0  0  0  0  0  0  0  0  0  0  0
    5.4700   23.3100    9.4300 N   0  0  0  0  0  0  0  0  0  0  0  0
    6.4400   22.4400   10.0100 C   0  0  0  0  0  0  0  0  0  0  0  0
    6.3500   22.4600   11.0900 H   0  0  0  0  0  0  0  0  0  0  0  0
    7.4400   22.7700    9.7200 H   0  0  0  0  0  0  0  0  0  0  0  0
    6.2800   21.4300    9.6500 H   0  0  0  0  0  0  0  0  0  0  0  0
  1  2  1  0  0  0  0
  2  3  1  0  0  0  0
  2 11  1  0  0  0  0
  3  4  1  0  0  0  0
  3 10  2  0  0  0  0
  4  5  2  0  0  0  0
  4 12  1  0  0  0  0
  5  6  1  0  0  0  0
  5  7  1  0  0  0  0
  7  8  2  0  0  0  0
  7 14  1  0  0  0  0
  8  9  1  0  0  0  0
  8 10  1  0  0  0  0
 10 13  1  0  0  0  0
 14 15  2  0  0  0  0
 14 16  2  0  0  0  0
 14 21  1  0  0  0  0
 17 18  1  0  0  0  0
 17 19  1  0  0  0  0
 17 20  1  0  0  0  0
 17 21  1  0  0  0  0
 21 22  1  0  0  0  0
 22 23  1  0  0  0  0
 22 24  1  0  0  0  0
 22 25  1  0  0  0  0
M  END
