lig_47
  PyMOL2.3          3D                             0

 17 18  0  0  0  0  0  0  0  0999 V2000
   -1.5900  -46.2900    7.3300 R   0  0  0  0  0  0  0  0  0  0  0  0
   -2.6600  -46.2600    8.1900 C   0  0  0  0  0  0  0  0  0  0  0  0
   -2.6200  -46.9200    9.3900 C   0  0  0  0  0  0  0  0  0  0  0  0
   -1.7400  -47.4900    9.6800 H   0  0  0  0  0  0  0  0  0  0  0  0
   -3.7300  -46.8600   10.2300 C   0  0  0  0  0  0  0  0  0  0  0  0
   -4.8700  -46.1400    9.8700 C   0  0  0  0  0  0  0  0  0  0  0  0
   -4.8900  -45.4700    8.6600 C   0  0  0  0  0  0  0  0  0  0  0  0
   -5.7700  -44.9100    8.3700 H   0  0  0  0  0  0  0  0  0  0  0  0
   -3.7800  -45.5300    7.8200 C   0  0  0  0  0  0  0  0  0  0  0  0
   -3.8000  -45.0000    6.8700 H   0  0  0  0  0  0  0  0  0  0  0  0
   -5.9800  -46.0900   10.7500 N   0  0  0  0  0  0  0  0  0  0  0  0
   -5.9500  -46.7700   11.9700 C   0  0  0  0  0  0  0  0  0  0  0  0
   -6.8000  -46.7200   12.6300 H   0  0  0  0  0  0  0  0  0  0  0  0
   -4.8200  -47.4900   12.3500 C   0  0  0  0  0  0  0  0  0  0  0  0
   -4.7900  -48.0100   13.2900 H   0  0  0  0  0  0  0  0  0  0  0  0
   -3.7100  -47.5500   11.4900 C   0  0  0  0  0  0  0  0  0  0  0  0
   -2.8400  -48.1100   11.7900 H   0  0  0  0  0  0  0  0  0  0  0  0
  1  2  1  0  0  0  0
  2  3  1  0  0  0  0
  2  9  2  0  0  0  0
  3  4  1  0  0  0  0
  3  5  2  0  0  0  0
  5  6  1  0  0  0  0
  5 16  1  0  0  0  0
  6  7  2  0  0  0  0
  6 11  1  0  0  0  0
  7  8  1  0  0  0  0
  7  9  1  0  0  0  0
  9 10  1  0  0  0  0
 11 12  2  0  0  0  0
 12 13  1  0  0  0  0
 12 14  1  0  0  0  0
 14 15  1  0  0  0  0
 14 16  2  0  0  0  0
 16 17  1  0  0  0  0
M  END
