lig_CAT-13c
  PyMOL2.3          3D                             0

 11 10  0  0  1  0  0  0  0  0999 V2000
   13.3912   -4.5452   -1.7936 H   0  0  0  0  0  0  0  0  0  0  0  0
   14.9600   -2.7100   -0.9300 *   0  0  0  0  0  0  0  0  0  0  0  0
   15.3500   -3.9500   -1.5200 C   0  0  1  0  0  0  0  0  0  0  0  0
   15.5900   -4.9100   -0.5000 C   0  0  0  0  0  0  0  0  0  0  0  0
   16.3900   -4.5600    0.1500 H   0  0  0  0  0  0  0  0  0  0  0  0
   15.8900   -5.8600   -0.9600 H   0  0  0  0  0  0  0  0  0  0  0  0
   14.6900   -5.0600    0.0800 H   0  0  0  0  0  0  0  0  0  0  0  0
   16.2500   -3.8000   -2.1100 H   0  0  0  0  0  0  0  0  0  0  0  0
   14.3000   -4.4100   -2.3800 C   0  0  0  0  0  0  0  0  0  0  0  0
   14.5900   -5.3600   -2.8300 H   0  0  0  0  0  0  0  0  0  0  0  0
   14.1100   -3.6800   -3.1600 H   0  0  0  0  0  0  0  0  0  0  0  0
  2  3  1  0  0  0  0
  3  4  1  0  0  0  0
  3  8  1  6  0  0  0
  3  9  1  0  0  0  0
  4  5  1  0  0  0  0
  4  6  1  0  0  0  0
  4  7  1  0  0  0  0
  1  9  1  0  0  0  0
  9 10  1  0  0  0  0
  9 11  1  0  0  0  0
M  END
