lig_CAT-13e
  PyMOL2.3          3D                             0

 12 12  0  0  0  0  0  0  0  0999 V2000
   15.8469   -3.5050   -2.3790 H   0  0  0  0  0  0  0  0  0  0  0  0
   14.9600   -2.7100   -0.9300 *   0  0  0  0  0  0  0  0  0  0  0  0
   14.6000   -5.4100   -0.2100 C   0  0  0  0  0  0  0  0  0  0  0  0
   14.5300   -6.4900   -0.0500 H   0  0  0  0  0  0  0  0  0  0  0  0
   14.0900   -4.9000    0.6100 H   0  0  0  0  0  0  0  0  0  0  0  0
   14.1800   -4.9100   -1.6100 C   0  0  0  0  0  0  0  0  0  0  0  0
   13.1700   -4.5000   -1.6800 H   0  0  0  0  0  0  0  0  0  0  0  0
   14.3200   -5.6500   -2.4000 H   0  0  0  0  0  0  0  0  0  0  0  0
   15.3300   -3.8900   -1.5000 C   0  0  0  0  0  0  0  0  0  0  0  0
   16.0100   -4.8700   -0.5200 C   0  0  0  0  0  0  0  0  0  0  0  0
   16.5300   -4.4100    0.3200 H   0  0  0  0  0  0  0  0  0  0  0  0
   16.6700   -5.5900   -1.0000 H   0  0  0  0  0  0  0  0  0  0  0  0
  2  9  1  0  0  0  0
  3  4  1  0  0  0  0
  3  5  1  0  0  0  0
  3  6  1  0  0  0  0
  3 10  1  0  0  0  0
  6  7  1  0  0  0  0
  6  8  1  0  0  0  0
  6  9  1  0  0  0  0
  1  9  1  0  0  0  0
  9 10  1  0  0  0  0
 10 11  1  0  0  0  0
 10 12  1  0  0  0  0
M  END
